# generated using pymatgen
data_NiH14C22(NO)4
_symmetry_space_group_name_H-M   'P 1'
_cell_length_a   12.78363593
_cell_length_b   22.36924312
_cell_length_c   22.36924555
_cell_angle_alpha   90.00001536
_cell_angle_beta   89.99999430
_cell_angle_gamma   90.00003718
_symmetry_Int_Tables_number   1
_chemical_formula_structural   NiH14C22(NO)4
_chemical_formula_sum   'Ni8 H112 C176 N32 O32'
_cell_volume   6396.71527239
_cell_formula_units_Z   8
loop_
 _symmetry_equiv_pos_site_id
 _symmetry_equiv_pos_as_xyz
  1  'x, y, z'
loop_
 _atom_site_type_symbol
 _atom_site_label
 _atom_site_symmetry_multiplicity
 _atom_site_fract_x
 _atom_site_fract_y
 _atom_site_fract_z
 _atom_site_occupancy
 _atom_site_pbe_bader_charge
 _atom_site_pbe_bader_spin_density
 _atom_site_pbe_cm5_charge
 _atom_site_pbe_ddec_charge
 _atom_site_pbe_ddec_spin_density
 _atom_site_pbe_ddec_sum_bond_order
 _atom_site_pbe_magmom
Ni  Ni0  1  0.24768079  0.25872861  0.74603592  1  1.122297  1.536065  0.648125  0.685977  1.763429  2.542135  1.517
Ni  Ni1  1  0.24767798  0.74127103  0.25396083  1  1.122217  1.536069  0.648123  0.685954  1.763429  2.542159  1.517
Ni  Ni2  1  0.24768107  0.75396307  0.75873109  1  1.12225  1.536063  0.648154  0.686025  1.763427  2.542178  1.517
Ni  Ni3  1  0.24768083  0.24603657  0.24127057  1  1.122272  1.536065  0.648116  0.685974  1.763429  2.542076  1.517
Ni  Ni4  1  0.75232051  0.24126985  0.24603692  1  1.122272  1.536066  0.648113  0.685939  1.763427  2.542127  1.517
Ni  Ni5  1  0.75231919  0.75872953  0.75396337  1  1.122254  1.536064  0.648134  0.685988  1.763427  2.542162  1.517
Ni  Ni6  1  0.75232158  0.74603704  0.25872941  1  1.122307  1.536068  0.648128  0.68601  1.763426  2.542018  1.517
Ni  Ni7  1  0.75232204  0.25396323  0.74127356  1  1.12227  1.53606  0.64817  0.685994  1.763426  2.542185  1.517
H  H8  1  0.73452547  0.96987391  0.77177312  1  0.102732  0.000509  0.106358  0.107853  0.000354  1.015919  0.0
H  H9  1  0.73452498  0.03012591  0.22822404  1  0.102708  0.000508  0.106321  0.107792  0.000354  1.016085  0.0
H  H10  1  0.73452614  0.72822421  0.46987466  1  0.102715  0.000509  0.106306  0.10779  0.000354  1.01608  0.0
H  H11  1  0.73452509  0.27177471  0.53012563  1  0.102705  0.000509  0.106325  0.107777  0.000354  1.016067  0.0
H  H12  1  0.26547405  0.53012620  0.27177543  1  0.102711  0.000508  0.106326  0.107805  0.000354  1.016086  0.0
H  H13  1  0.26547475  0.46987434  0.72822399  1  0.102696  0.000508  0.10631  0.107781  0.000354  1.01612  0.0
H  H14  1  0.26547412  0.77177596  0.96987411  1  0.102693  0.000509  0.106318  0.107799  0.000354  1.016033  0.0
H  H15  1  0.26547546  0.22822458  0.03012621  1  0.102702  0.000509  0.106317  0.107786  0.000354  1.016075  0.0
H  H16  1  0.83297347  0.06718179  0.76897362  1  0.109207  0.000265  0.104502  0.115336  0.000164  1.038956  0.0
H  H17  1  0.83297167  0.93281762  0.23102533  1  0.109157  0.000265  0.104492  0.115324  0.000164  1.038952  0.0
H  H18  1  0.83297230  0.73102541  0.56718237  1  0.109151  0.000265  0.104496  0.115315  0.000164  1.038964  0.0
H  H19  1  0.83297362  0.26897400  0.43281926  1  0.109198  0.000265  0.104498  0.115346  0.000164  1.038975  0.0
H  H20  1  0.16702704  0.43281936  0.26897515  1  0.1092  0.000265  0.104503  0.115368  0.000164  1.038952  0.0
H  H21  1  0.16702707  0.56718114  0.73102517  1  0.10918  0.000265  0.104488  0.115321  0.000164  1.038987  0.0
H  H22  1  0.16702646  0.76897465  0.06718162  1  0.109195  0.000265  0.104489  0.115328  0.000164  1.038956  0.0
H  H23  1  0.16702843  0.23102541  0.93281825  1  0.10917  0.000265  0.104494  0.115299  0.000164  1.038971  0.0
H  H24  1  0.02762090  0.88005179  0.79915850  1  0.115123  0.000666  0.11146  0.08584  0.000549  1.032168  0.0
H  H25  1  0.02762130  0.11994776  0.20084273  1  0.115118  0.000666  0.111454  0.085825  0.000549  1.032248  0.0
H  H26  1  0.02762083  0.70084272  0.38005270  1  0.115123  0.000666  0.111461  0.085816  0.000549  1.032233  0.0
H  H27  1  0.02762058  0.29915773  0.61994853  1  0.115102  0.000666  0.111439  0.085803  0.000549  1.032237  0.0
H  H28  1  0.97237861  0.61994788  0.29915722  1  0.115074  0.000666  0.111423  0.085757  0.000549  1.032323  0.0
H  H29  1  0.97237922  0.38005158  0.70084172  1  0.115091  0.000666  0.111444  0.085811  0.000549  1.032197  0.0
H  H30  1  0.97237788  0.79915698  0.88005256  1  0.115109  0.000666  0.11145  0.085804  0.000549  1.032276  0.0
H  H31  1  0.97237917  0.20084338  0.11994727  1  0.115107  0.000666  0.111455  0.0858  0.000549  1.032272  0.0
H  H32  1  0.92956966  0.12801935  0.72117720  1  0.139079  0.00086  0.111545  0.132533  0.000387  1.024418  0.0
H  H33  1  0.92956934  0.87198054  0.27882353  1  0.138994  0.000859  0.111543  0.1325  0.000387  1.024408  0.0
H  H34  1  0.92956926  0.77882366  0.62801902  1  0.138985  0.000859  0.11157  0.132556  0.000387  1.02436  0.0
H  H35  1  0.92956896  0.22117579  0.37198081  1  0.13898  0.000859  0.111543  0.132489  0.000387  1.024407  0.0
H  H36  1  0.07043086  0.37198089  0.22117604  1  0.138999  0.000859  0.111549  0.132527  0.000387  1.024374  0.0
H  H37  1  0.07043174  0.62801913  0.77882429  1  0.138996  0.000859  0.11155  0.132522  0.000387  1.024329  0.0
H  H38  1  0.07043107  0.72117597  0.12801961  1  0.139011  0.000859  0.111545  0.132505  0.000387  1.024385  0.0
H  H39  1  0.07043231  0.27882405  0.87198072  1  0.138969  0.000859  0.111556  0.132523  0.000387  1.024351  0.0
H  H40  1  0.04102360  0.21751439  0.70970344  1  0.1795  0.002001  0.122059  0.102049  0.000678  1.019465  0.002
H  H41  1  0.04102318  0.78248562  0.29029733  1  0.179508  0.002003  0.122045  0.102038  0.000679  1.019432  0.002
H  H42  1  0.04102314  0.79029729  0.71751380  1  0.179521  0.002002  0.122057  0.102052  0.000678  1.019414  0.002
H  H43  1  0.04102363  0.20970316  0.28248564  1  0.179514  0.002002  0.122044  0.102017  0.000678  1.019444  0.002
H  H44  1  0.95897614  0.28248585  0.20970221  1  0.179536  0.002003  0.122057  0.102087  0.000679  1.019389  0.002
H  H45  1  0.95897633  0.71751450  0.79029717  1  0.179537  0.002003  0.122058  0.1021  0.000679  1.01935  0.002
H  H46  1  0.95897716  0.70970236  0.21751478  1  0.1795  0.002003  0.122049  0.10205  0.000679  1.019346  0.002
H  H47  1  0.95897609  0.29029754  0.78248550  1  0.179518  0.002002  0.122068  0.102112  0.000679  1.019302  0.002
H  H48  1  0.28362980  0.14017075  0.80550058  1  0.116853  0.002198  0.11922  0.093106  0.000739  1.005133  0.001
H  H49  1  0.28362792  0.85982980  0.19449884  1  0.116831  0.002198  0.119206  0.093045  0.00074  1.005135  0.001
H  H50  1  0.28362857  0.69449927  0.64016964  1  0.116834  0.002198  0.1192  0.093067  0.000739  1.005132  0.001
H  H51  1  0.28362915  0.30550127  0.35983023  1  0.116845  0.002198  0.119205  0.093065  0.00074  1.00512  0.001
H  H52  1  0.71636992  0.35982996  0.30550072  1  0.11675  0.002199  0.119206  0.093057  0.00074  1.005133  0.001
H  H53  1  0.71637005  0.64016985  0.69449957  1  0.116836  0.002198  0.119218  0.093065  0.00074  1.00514  0.001
H  H54  1  0.71637097  0.80550081  0.14017022  1  0.116819  0.002199  0.119216  0.093114  0.00074  1.005065  0.001
H  H55  1  0.71636978  0.19449901  0.85983008  1  0.116855  0.002199  0.119219  0.093081  0.00074  1.005113  0.001
H  H56  1  0.18107363  0.04612374  0.82148099  1  0.118813  0.001029  0.113581  0.121498  0.000517  1.003755  0.001
H  H57  1  0.18107264  0.95387677  0.17851888  1  0.118806  0.001029  0.113585  0.121521  0.000517  1.003732  0.001
H  H58  1  0.18107167  0.67851926  0.54612266  1  0.118794  0.001029  0.113586  0.121512  0.000517  1.00374  0.001
H  H59  1  0.18107304  0.32148124  0.45387677  1  0.118811  0.001029  0.11359  0.121524  0.000517  1.003713  0.001
H  H60  1  0.81892687  0.45387653  0.32148071  1  0.118826  0.001029  0.113584  0.121512  0.000517  1.003751  0.001
H  H61  1  0.81892689  0.54612288  0.67851913  1  0.11882  0.001029  0.113584  0.121525  0.000517  1.003744  0.001
H  H62  1  0.81892788  0.82148034  0.04612368  1  0.118829  0.001029  0.113581  0.121476  0.000517  1.003756  0.001
H  H63  1  0.81892900  0.17851906  0.95387661  1  0.118808  0.001029  0.113588  0.121534  0.000517  1.003728  0.001
H  H64  1  0.70897754  0.17280577  0.44288754  1  0.115477  0.000426  0.113749  0.116126  0.000287  0.980258  0.0
H  H65  1  0.70897712  0.82719270  0.55711231  1  0.115509  0.000426  0.113762  0.116147  0.000287  0.980257  0.0
H  H66  1  0.70897902  0.05711212  0.67280677  1  0.115473  0.000427  0.113745  0.116173  0.000287  0.980212  0.0
H  H67  1  0.70897721  0.94288769  0.32719263  1  0.115617  0.000426  0.113761  0.116167  0.000287  0.980249  0.0
H  H68  1  0.29102294  0.32719274  0.94288700  1  0.115498  0.000426  0.113755  0.116159  0.000287  0.98024  0.0
H  H69  1  0.29102087  0.67280691  0.05711108  1  0.11548  0.000426  0.113743  0.116108  0.000287  0.980255  0.0
H  H70  1  0.29102229  0.44288632  0.17280695  1  0.115588  0.000426  0.113736  0.11614  0.000287  0.980248  0.0
H  H71  1  0.29102308  0.55711200  0.82719247  1  0.115514  0.000426  0.113769  0.116161  0.000287  0.980251  0.0
H  H72  1  0.60216598  0.16836887  0.53729439  1  0.096762  0.000126  0.111447  0.120011  7.2e-05  0.994486  0.0
H  H73  1  0.60216558  0.83163135  0.46270591  1  0.096471  0.000126  0.111449  0.120011  7.2e-05  0.99448  0.0
H  H74  1  0.60216563  0.96270555  0.66836865  1  0.096782  0.000126  0.111453  0.12002  7.2e-05  0.994458  0.0
H  H75  1  0.60216592  0.03729422  0.33163165  1  0.096473  0.000126  0.111476  0.120058  7.2e-05  0.994439  0.0
H  H76  1  0.39783379  0.33163133  0.03729409  1  0.096498  0.000126  0.111448  0.120017  7.2e-05  0.994441  0.0
H  H77  1  0.39783468  0.66836882  0.96270577  1  0.09678  0.000126  0.111461  0.120044  7.2e-05  0.994457  0.0
H  H78  1  0.39783155  0.53729409  0.16836828  1  0.096472  0.000126  0.111438  0.120001  7.2e-05  0.994415  0.0
H  H79  1  0.39783458  0.46270516  0.83163114  1  0.096779  0.000126  0.111469  0.120031  7.2e-05  0.994469  0.0
H  H80  1  0.47185102  0.28652212  0.36785240  1  0.109757  0.000565  0.113913  0.088034  0.000432  1.013547  0.0
H  H81  1  0.47184889  0.71347805  0.63214746  1  0.109757  0.000565  0.113917  0.088076  0.000432  1.013581  0.0
H  H82  1  0.47185011  0.13214861  0.78652139  1  0.109784  0.000565  0.113867  0.087989  0.000432  1.013624  0.0
H  H83  1  0.47184980  0.86785246  0.21347713  1  0.10973  0.000565  0.113898  0.088032  0.000432  1.013553  0.0
H  H84  1  0.52815025  0.21347726  0.86785226  1  0.109715  0.000565  0.113939  0.088103  0.000432  1.013536  0.0
H  H85  1  0.52814908  0.78652159  0.13214760  1  0.109769  0.000565  0.113896  0.087998  0.000432  1.01359  0.0
H  H86  1  0.52815118  0.36785299  0.28652199  1  0.109745  0.000565  0.113899  0.088013  0.000432  1.013554  0.0
H  H87  1  0.52815051  0.63214764  0.71347787  1  0.109714  0.000565  0.113905  0.088039  0.000432  1.013545  0.0
H  H88  1  0.55961863  0.21736516  0.61734448  1  0.087688  0.001027  0.110005  0.127548  0.000446  1.023345  0.001
H  H89  1  0.55961741  0.78263504  0.38265627  1  0.087762  0.001027  0.110022  0.127589  0.000446  1.023346  0.001
H  H90  1  0.55961822  0.88265635  0.71736448  1  0.087707  0.001027  0.109989  0.127526  0.000446  1.023431  0.001
H  H91  1  0.55961704  0.11734296  0.28263582  1  0.087709  0.001027  0.109992  0.12752  0.000446  1.023419  0.001
H  H92  1  0.44038190  0.28263595  0.11734238  1  0.087743  0.001027  0.110013  0.127573  0.000446  1.023353  0.001
H  H93  1  0.44038130  0.71736377  0.88265658  1  0.087716  0.001027  0.109999  0.127572  0.000446  1.023335  0.001
H  H94  1  0.44037974  0.61734375  0.21736458  1  0.087686  0.001027  0.109991  0.127528  0.000445  1.023367  0.001
H  H95  1  0.44038347  0.38265641  0.78263484  1  0.087736  0.001027  0.110009  0.127558  0.000445  1.023409  0.001
H  H96  1  0.45567246  0.22391612  0.71027073  1  0.184546  0.002154  0.119539  0.099336  0.000782  1.043577  0.002
H  H97  1  0.45567281  0.77608315  0.28973002  1  0.184733  0.002153  0.119523  0.099279  0.000781  1.04366  0.002
H  H98  1  0.45567278  0.78973052  0.72391588  1  0.18453  0.002153  0.119544  0.099308  0.000781  1.043661  0.002
H  H99  1  0.45567327  0.21026964  0.27608353  1  0.184563  0.002154  0.119547  0.099319  0.000782  1.043597  0.002
H  H100  1  0.54432728  0.27608323  0.21026862  1  0.184773  0.002154  0.119554  0.099316  0.000782  1.043621  0.002
H  H101  1  0.54432748  0.72391607  0.78973034  1  0.184716  0.002154  0.119542  0.099296  0.000782  1.043627  0.002
H  H102  1  0.54432596  0.71026958  0.22391644  1  0.184551  0.002155  0.119545  0.099321  0.000782  1.043591  0.002
H  H103  1  0.54432802  0.28973017  0.77608297  1  0.184746  0.002154  0.119535  0.099303  0.000782  1.043618  0.002
H  H104  1  0.18300749  0.26022439  0.61633284  1  0.120138  0.002162  0.117033  0.085691  0.00066  1.032574  0.001
H  H105  1  0.18300544  0.73977612  0.38366569  1  0.120099  0.002161  0.11707  0.085702  0.00066  1.032537  0.001
H  H106  1  0.18300705  0.88366660  0.76022513  1  0.120107  0.002161  0.11704  0.085719  0.000659  1.032534  0.001
H  H107  1  0.18300666  0.11633301  0.23977475  1  0.120118  0.002161  0.117043  0.085694  0.00066  1.032527  0.001
H  H108  1  0.81699304  0.23977627  0.11633250  1  0.12012  0.00216  0.117044  0.085713  0.000659  1.032538  0.001
H  H109  1  0.81699327  0.76022492  0.88366645  1  0.120131  0.002162  0.117024  0.085701  0.00066  1.032556  0.001
H  H110  1  0.81699246  0.61633351  0.26022341  1  0.120154  0.002162  0.11706  0.085727  0.00066  1.032608  0.001
H  H111  1  0.81699307  0.38366723  0.73977509  1  0.120134  0.002161  0.117043  0.085689  0.000659  1.032571  0.001
H  H112  1  0.27506347  0.25262557  0.51841268  1  0.131809  0.00099  0.107527  0.111994  0.000509  1.037813  0.001
H  H113  1  0.27505906  0.74737632  0.48158719  1  0.131777  0.00099  0.107552  0.112054  0.000509  1.037746  0.001
H  H114  1  0.27506073  0.98158768  0.75262631  1  0.131844  0.00099  0.107547  0.112059  0.000509  1.037747  0.001
H  H115  1  0.27506180  0.01841242  0.24737356  1  0.131831  0.00099  0.107561  0.112079  0.000509  1.037779  0.001
H  H116  1  0.72493943  0.24737641  0.01841056  1  0.131665  0.00099  0.107563  0.112029  0.000509  1.037827  0.001
H  H117  1  0.72493885  0.75262609  0.98158795  1  0.131848  0.00099  0.107556  0.112048  0.000509  1.037716  0.001
H  H118  1  0.72493878  0.51841243  0.25262323  1  0.131753  0.00099  0.107557  0.112013  0.000509  1.037774  0.001
H  H119  1  0.72493950  0.48158783  0.74737438  1  0.131817  0.00099  0.107577  0.112091  0.000509  1.037737  0.001
C  C120  1  0.82092101  0.85905659  0.77774514  1  1.549987  -0.00434  0.195583  0.550947  -0.005684  4.197231  -0.006
C  C121  1  0.82091831  0.14094415  0.22225425  1  1.550053  -0.00434  0.195527  0.550872  -0.005683  4.197423  -0.006
C  C122  1  0.82092019  0.72225396  0.35905644  1  1.549918  -0.004341  0.195513  0.550874  -0.005684  4.197529  -0.006
C  C123  1  0.82091991  0.27774544  0.64094474  1  1.549988  -0.004341  0.195566  0.550878  -0.005684  4.197353  -0.006
C  C124  1  0.17908085  0.64094531  0.27774257  1  1.55018  -0.004338  0.195542  0.550874  -0.005681  4.197817  -0.006
C  C125  1  0.17908221  0.35905609  0.72225373  1  1.549994  -0.004339  0.195562  0.550894  -0.005684  4.197536  -0.006
C  C126  1  0.17908165  0.77774618  0.85905589  1  1.550077  -0.00434  0.195568  0.550941  -0.005685  4.197295  -0.006
C  C127  1  0.17907984  0.22225344  0.14094264  1  1.549915  -0.004341  0.195528  0.550881  -0.005684  4.197592  -0.006
C  C128  1  0.87456541  0.91781362  0.78323259  1  -0.050751  0.002331  -0.014677  -0.073071  0.001474  3.970752  0.002
C  C129  1  0.87456655  0.08218804  0.21676769  1  -0.050721  0.002332  -0.01458  -0.073  0.001474  3.970675  0.002
C  C130  1  0.87456767  0.71676743  0.41781166  1  -0.05063  0.002331  -0.014625  -0.073035  0.001474  3.970749  0.002
C  C131  1  0.87456663  0.28323200  0.58218907  1  -0.050734  0.002332  -0.01464  -0.073072  0.001474  3.970732  0.002
C  C132  1  0.12543567  0.58218784  0.28323225  1  -0.050382  0.002332  -0.014631  -0.073116  0.001475  3.970705  0.002
C  C133  1  0.12543319  0.41780996  0.71676674  1  -0.050501  0.002331  -0.01465  -0.073119  0.001473  3.970893  0.002
C  C134  1  0.12543494  0.78323273  0.91781335  1  -0.050771  0.002333  -0.014627  -0.073023  0.001474  3.970644  0.002
C  C135  1  0.12543470  0.21676731  0.08218921  1  -0.050524  0.002331  -0.014626  -0.073087  0.001474  3.970788  0.002
C  C136  1  0.81929713  0.97129061  0.77654351  1  -0.027342  0.000382  -0.066202  -0.042398  3.6e-05  3.953853  0.0
C  C137  1  0.81929507  0.02870880  0.22345633  1  -0.027348  0.000382  -0.066208  -0.042328  3.6e-05  3.953901  0.0
C  C138  1  0.81929467  0.72345607  0.47129134  1  -0.027367  0.000382  -0.066199  -0.042353  3.6e-05  3.953804  0.0
C  C139  1  0.81929519  0.27654333  0.52870895  1  -0.027327  0.000381  -0.066175  -0.042275  3.6e-05  3.953747  0.0
C  C140  1  0.18070552  0.52870906  0.27654359  1  -0.027609  0.000382  -0.066218  -0.042342  3.7e-05  3.953898  0.0
C  C141  1  0.18070623  0.47129100  0.72345629  1  -0.027562  0.000383  -0.066205  -0.042353  3.7e-05  3.953882  0.0
C  C142  1  0.18070403  0.77654365  0.97129034  1  -0.027308  0.000382  -0.066193  -0.042373  3.7e-05  3.953856  0.0
C  C143  1  0.18070615  0.22345641  0.02870864  1  -0.027557  0.000382  -0.066199  -0.042331  3.6e-05  3.953777  0.0
C  C144  1  0.87404862  0.02489829  0.77487949  1  -0.085102  -0.000439  -0.08575  -0.170902  -0.000651  3.940386  0.0
C  C145  1  0.87404842  0.97510158  0.22511990  1  -0.085114  -0.000439  -0.085737  -0.17091  -0.000651  3.940448  0.0
C  C146  1  0.87404747  0.72511909  0.52489887  1  -0.085113  -0.000439  -0.085747  -0.170895  -0.000651  3.940378  0.0
C  C147  1  0.87404800  0.27487899  0.47510187  1  -0.085095  -0.000439  -0.085734  -0.170936  -0.000651  3.940352  0.0
C  C148  1  0.12595111  0.47510241  0.27488103  1  -0.085111  -0.000439  -0.085727  -0.170938  -0.00065  3.940453  0.0
C  C149  1  0.12595423  0.52489763  0.72511974  1  -0.085076  -0.000439  -0.0857  -0.170858  -0.000651  3.940303  0.0
C  C150  1  0.12595209  0.77488007  0.02489902  1  -0.085109  -0.000439  -0.085739  -0.170894  -0.000651  3.940285  0.0
C  C151  1  0.12595403  0.22511908  0.97510086  1  -0.085144  -0.00044  -0.08575  -0.170867  -0.000652  3.940393  0.0
C  C152  1  0.98371303  0.02356881  0.77965926  1  0.565482  -0.000903  0.120591  0.201394  -0.001074  3.995537  0.0
C  C153  1  0.98371128  0.97643021  0.22034146  1  0.56542  -0.000903  0.120601  0.201421  -0.001074  3.995504  0.0
C  C154  1  0.98371189  0.72034023  0.52356981  1  0.565462  -0.000903  0.120608  0.201436  -0.001075  3.995498  0.0
C  C155  1  0.98371399  0.27965790  0.47643137  1  0.565483  -0.000904  0.120607  0.201459  -0.001075  3.995537  0.0
C  C156  1  0.01628826  0.47643100  0.27965992  1  0.565462  -0.000903  0.120617  0.201456  -0.001074  3.99542  0.0
C  C157  1  0.01628590  0.52356900  0.72034041  1  0.565488  -0.000903  0.120574  0.20143  -0.001075  3.995496  0.0
C  C158  1  0.01628767  0.77965893  0.02356907  1  0.565458  -0.000903  0.120613  0.201441  -0.001075  3.995497  0.0
C  C159  1  0.01628961  0.22034062  0.97643037  1  0.565467  -0.000903  0.120605  0.201461  -0.001075  3.995439  0.0
C  C160  1  0.98328956  0.92119730  0.79148276  1  0.531229  0.000861  0.051203  0.079389  0.000393  3.950558  0.001
C  C161  1  0.98329148  0.07880305  0.20851842  1  0.531205  0.000862  0.051144  0.079337  0.000393  3.95078  0.001
C  C162  1  0.98329104  0.70851728  0.42119711  1  0.531187  0.000861  0.051186  0.079422  0.000393  3.950737  0.001
C  C163  1  0.98329079  0.29148129  0.57880407  1  0.531185  0.000861  0.051174  0.079379  0.000393  3.950653  0.001
C  C164  1  0.01670604  0.57880505  0.29148286  1  0.531194  0.000862  0.051237  0.079481  0.000393  3.950551  0.001
C  C165  1  0.01671060  0.42119540  0.70851747  1  0.531164  0.000861  0.051192  0.07943  0.000393  3.950535  0.001
C  C166  1  0.01670766  0.79148153  0.92119657  1  0.531233  0.000862  0.051162  0.079364  0.000393  3.950703  0.001
C  C167  1  0.01670741  0.20851757  0.07880376  1  0.53121  0.000861  0.051168  0.079437  0.000393  3.95059  0.001
C  C168  1  0.04629432  0.07874663  0.77269929  1  -0.019432  -0.007393  0.011783  0.080008  -0.007866  3.966615  -0.005
C  C169  1  0.04629250  0.92125383  0.22730014  1  -0.019406  -0.007392  0.011794  0.079969  -0.007865  3.966697  -0.005
C  C170  1  0.04629236  0.72730006  0.57874648  1  -0.01942  -0.007392  0.011808  0.079962  -0.007865  3.966723  -0.005
C  C171  1  0.04629446  0.27269861  0.42125385  1  -0.019437  -0.007392  0.011753  0.079933  -0.007865  3.96667  -0.005
C  C172  1  0.95370619  0.42125273  0.27269988  1  -0.019184  -0.00739  0.011767  0.080077  -0.007863  3.966553  -0.005
C  C173  1  0.95370781  0.57874583  0.72730129  1  -0.019431  -0.007393  0.011803  0.080002  -0.007866  3.966658  -0.005
C  C174  1  0.95370641  0.77269911  0.07874659  1  -0.019429  -0.007391  0.011797  0.080053  -0.007864  3.966556  -0.005
C  C175  1  0.95370837  0.22730079  0.92125325  1  -0.019354  -0.007394  0.011836  0.079987  -0.007867  3.966601  -0.005
C  C176  1  0.00754324  0.12806881  0.74084217  1  -0.06227  0.006308  -0.079948  -0.161779  0.003552  3.910189  0.005
C  C177  1  0.00754136  0.87193030  0.25915816  1  -0.062207  0.006309  -0.07997  -0.161749  0.003553  3.910077  0.005
C  C178  1  0.00754048  0.75915854  0.62806912  1  -0.062231  0.006308  -0.080003  -0.16184  0.003552  3.91007  0.005
C  C179  1  0.00754256  0.24084146  0.37193122  1  -0.062179  0.006308  -0.079983  -0.161775  0.003553  3.910045  0.005
C  C180  1  0.99245571  0.37193144  0.24084274  1  -0.062438  0.006308  -0.079956  -0.161838  0.003553  3.910091  0.005
C  C181  1  0.99245581  0.62806892  0.75915798  1  -0.062187  0.006308  -0.079967  -0.161782  0.003553  3.910122  0.005
C  C182  1  0.99245749  0.74084109  0.12806921  1  -0.062185  0.006308  -0.079999  -0.161857  0.003553  3.910026  0.005
C  C183  1  0.99245950  0.25915882  0.87193017  1  -0.062239  0.006308  -0.080004  -0.161807  0.003553  3.910111  0.005
C  C184  1  0.06968678  0.17848268  0.73384685  1  0.409737  -0.004327  0.045914  0.088174  -0.00473  3.929652  -0.003
C  C185  1  0.06969032  0.82151689  0.26615258  1  0.409891  -0.004329  0.04597  0.088211  -0.00473  3.929603  -0.003
C  C186  1  0.06969025  0.76615254  0.67848253  1  0.409381  -0.004324  0.045974  0.088217  -0.00473  3.929462  -0.003
C  C187  1  0.06969076  0.23384704  0.32151691  1  0.409463  -0.004326  0.045985  0.08825  -0.004731  3.92958  -0.003
C  C188  1  0.93030669  0.32151801  0.23384787  1  0.4097  -0.004323  0.045955  0.088163  -0.00473  3.929769  -0.003
C  C189  1  0.93030763  0.67848143  0.76615286  1  0.409678  -0.004324  0.045919  0.088124  -0.00473  3.929627  -0.003
C  C190  1  0.93030850  0.73384711  0.17848307  1  0.410172  -0.004327  0.04604  0.088327  -0.00473  3.929566  -0.003
C  C191  1  0.93030896  0.26615323  0.82151811  1  0.409768  -0.004327  0.045932  0.088146  -0.004732  3.92943  -0.003
C  C192  1  0.20476648  0.13525327  0.78771724  1  0.423912  -0.005101  0.045916  0.09043  -0.005668  3.941591  -0.003
C  C193  1  0.20476460  0.86474636  0.21228174  1  0.423965  -0.005101  0.045973  0.090611  -0.005668  3.941423  -0.003
C  C194  1  0.20476525  0.71228305  0.63525352  1  0.423989  -0.005101  0.045961  0.090484  -0.005668  3.94151  -0.003
C  C195  1  0.20476347  0.28771702  0.36474725  1  0.423777  -0.005101  0.045945  0.090499  -0.005667  3.941544  -0.003
C  C196  1  0.79523481  0.36474610  0.28771603  1  0.423863  -0.0051  0.045968  0.090553  -0.005667  3.941539  -0.003
C  C197  1  0.79523493  0.63525285  0.71228426  1  0.423762  -0.005101  0.045933  0.090534  -0.005667  3.941599  -0.003
C  C198  1  0.79523741  0.78771658  0.13525409  1  0.423832  -0.0051  0.045958  0.090444  -0.005667  3.941545  -0.003
C  C199  1  0.79523702  0.21228326  0.86474710  1  0.423781  -0.005102  0.045909  0.090479  -0.005669  3.941584  -0.003
C  C200  1  0.14765046  0.08320903  0.79641802  1  -0.013477  0.005673  -0.077101  -0.156319  0.00326  3.940738  0.004
C  C201  1  0.14764942  0.91679147  0.20358097  1  -0.013285  0.005673  -0.077129  -0.156377  0.00326  3.940627  0.004
C  C202  1  0.14764848  0.70358091  0.58320796  1  -0.013476  0.005673  -0.077161  -0.156345  0.00326  3.940691  0.004
C  C203  1  0.14764905  0.29641870  0.41679147  1  -0.013316  0.005673  -0.077115  -0.156339  0.00326  3.940697  0.004
C  C204  1  0.85235083  0.41679123  0.29641817  1  -0.013284  0.005673  -0.077129  -0.156393  0.00326  3.940727  0.004
C  C205  1  0.85235011  0.58320908  0.70358212  1  -0.013276  0.005673  -0.077105  -0.15639  0.00326  3.940731  0.004
C  C206  1  0.85235185  0.79641826  0.08320897  1  -0.013285  0.005673  -0.077113  -0.156303  0.00326  3.940725  0.004
C  C207  1  0.85234909  0.20358070  0.91679176  1  -0.013302  0.005673  -0.07711  -0.156348  0.00326  3.940616  0.004
C  C208  1  0.66363055  0.23806097  0.34439875  1  1.545859  -0.004298  0.194108  0.540823  -0.00559  4.221134  -0.006
C  C209  1  0.66363082  0.76193882  0.65560244  1  1.545896  -0.004298  0.194145  0.540979  -0.00559  4.22121  -0.006
C  C210  1  0.66363281  0.15560182  0.73806468  1  1.54573  -0.004298  0.194084  0.540816  -0.005591  4.220814  -0.006
C  C211  1  0.66363168  0.84439708  0.26193785  1  1.545911  -0.004297  0.194116  0.540902  -0.005589  4.221148  -0.006
C  C212  1  0.33636916  0.26193662  0.84439775  1  1.545709  -0.004297  0.194072  0.540802  -0.00559  4.220959  -0.006
C  C213  1  0.33636559  0.73806350  0.15560122  1  1.545622  -0.004298  0.194151  0.540867  -0.00559  4.221069  -0.006
C  C214  1  0.33637083  0.34439664  0.23806081  1  1.545883  -0.004298  0.194061  0.540814  -0.00559  4.221114  -0.006
C  C215  1  0.33636940  0.65560438  0.76193905  1  1.545914  -0.004298  0.1941  0.540917  -0.00559  4.221117  -0.006
C  C216  1  0.60008837  0.23210011  0.39962100  1  -0.046742  0.001847  -0.016906  -0.080988  0.001129  3.985174  0.001
C  C217  1  0.60008553  0.76790011  0.60037974  1  -0.046697  0.001848  -0.01684  -0.08098  0.00113  3.985122  0.001
C  C218  1  0.60008670  0.10037956  0.73210068  1  -0.046729  0.001847  -0.016773  -0.080795  0.001129  3.984891  0.001
C  C219  1  0.60008641  0.89962021  0.26789872  1  -0.046716  0.001849  -0.016813  -0.080846  0.00113  3.985022  0.001
C  C220  1  0.39991446  0.26789795  0.89961955  1  -0.04671  0.001847  -0.016825  -0.080864  0.001129  3.984872  0.001
C  C221  1  0.39991089  0.73210085  0.10037898  1  -0.046733  0.001848  -0.016876  -0.080942  0.001129  3.985062  0.001
C  C222  1  0.39991382  0.39961980  0.23210085  1  -0.04667  0.001848  -0.016841  -0.080975  0.00113  3.985019  0.001
C  C223  1  0.39991388  0.60038035  0.76789946  1  -0.046663  0.001847  -0.016811  -0.080914  0.001129  3.985013  0.001
C  C224  1  0.63554070  0.19718521  0.44731237  1  -0.067131  0.000404  -0.0651  -0.049563  9e-06  3.974659  0.0
C  C225  1  0.63553947  0.80281502  0.55268748  1  -0.067085  0.000404  -0.065167  -0.049629  9e-06  3.974757  0.0
C  C226  1  0.63554060  0.05268729  0.69718533  1  -0.067101  0.000404  -0.065108  -0.04968  9e-06  3.97459  0.0
C  C227  1  0.63554114  0.94731250  0.30281452  1  -0.067208  0.000404  -0.065157  -0.049683  9e-06  3.974605  0.0
C  C228  1  0.36445821  0.30281464  0.94731316  1  -0.067106  0.000404  -0.065082  -0.049584  9e-06  3.974503  0.0
C  C229  1  0.36445774  0.69718593  0.05268671  1  -0.067164  0.000404  -0.065073  -0.049507  9e-06  3.974597  0.0
C  C230  1  0.36445680  0.44731250  0.19718462  1  -0.067246  0.000404  -0.065119  -0.049621  9e-06  3.974575  0.0
C  C231  1  0.36446072  0.55268673  0.80281480  1  -0.067075  0.000405  -0.065184  -0.049662  1e-05  3.974716  0.0
C  C232  1  0.57672566  0.19523476  0.49938610  1  -0.099291  -0.000658  -0.081557  -0.170254  -0.000848  3.95954  0.0
C  C233  1  0.57672288  0.80476544  0.50061465  1  -0.098998  -0.000658  -0.081558  -0.170264  -0.000848  3.959815  0.0
C  C234  1  0.57672475  0.00061488  0.69523577  1  -0.099326  -0.000658  -0.081597  -0.17027  -0.000849  3.959789  0.0
C  C235  1  0.57672379  0.99938488  0.30476453  1  -0.099016  -0.000659  -0.081594  -0.170331  -0.000849  3.95973  0.0
C  C236  1  0.42327481  0.30476421  0.99938331  1  -0.098983  -0.000658  -0.08161  -0.170344  -0.000848  3.959797  0.0
C  C237  1  0.42327434  0.69523549  0.00061476  1  -0.099312  -0.000658  -0.08155  -0.170298  -0.000849  3.959694  0.0
C  C238  1  0.42327421  0.49938401  0.19523552  1  -0.098958  -0.000658  -0.081577  -0.170278  -0.000848  3.95963  0.0
C  C239  1  0.42327650  0.50061480  0.80476479  1  -0.099323  -0.000658  -0.081601  -0.170318  -0.000849  3.959857  0.0
C  C240  1  0.48427937  0.22911654  0.50277558  1  0.562991  -0.000825  0.124334  0.207472  -0.000962  3.991753  0.0
C  C241  1  0.48427654  0.77088498  0.49722517  1  0.562939  -0.000825  0.12435  0.207548  -0.000962  3.991781  0.0
C  C242  1  0.48428056  0.99722391  0.72911590  1  0.563162  -0.000825  0.124395  0.20756  -0.000962  3.991793  0.0
C  C243  1  0.48428004  0.00277581  0.27088485  1  0.562895  -0.000824  0.124397  0.207597  -0.000962  3.991727  0.0
C  C244  1  0.51572119  0.27088499  0.00277616  1  0.562926  -0.000825  0.124375  0.207578  -0.000962  3.99161  0.0
C  C245  1  0.51572058  0.72911520  0.99722370  1  0.562963  -0.000825  0.124308  0.207448  -0.000962  3.991762  0.0
C  C246  1  0.51571974  0.50277708  0.22911596  1  0.56291  -0.000825  0.124449  0.207697  -0.000962  3.99153  0.0
C  C247  1  0.51572203  0.49722444  0.77088434  1  0.562914  -0.000825  0.124362  0.207544  -0.000962  3.991813  0.0
C  C248  1  0.50337725  0.26127497  0.40565608  1  0.560334  0.000837  0.053719  0.084108  0.000342  3.950566  0.001
C  C249  1  0.50337437  0.73872611  0.59434512  1  0.559947  0.000836  0.053691  0.08398  0.000342  3.950622  0.001
C  C250  1  0.50337790  0.09434492  0.76127333  1  0.560405  0.000837  0.053648  0.083972  0.000342  3.950866  0.001
C  C251  1  0.50337684  0.90565482  0.23872564  1  0.560393  0.000836  0.053653  0.083963  0.000342  3.950771  0.001
C  C252  1  0.49662246  0.23872443  0.90565461  1  0.560356  0.000837  0.053629  0.083901  0.000342  3.950821  0.001
C  C253  1  0.49662126  0.76127352  0.09434435  1  0.560464  0.000837  0.053692  0.084059  0.000342  3.950774  0.001
C  C254  1  0.49662418  0.40565623  0.26127528  1  0.560411  0.000836  0.053727  0.084121  0.000342  3.950776  0.001
C  C255  1  0.49662424  0.59434440  0.73872502  1  0.560417  0.000837  0.053705  0.084022  0.000343  3.950729  0.001
C  C256  1  0.42500436  0.23258514  0.55927860  1  -0.06581  -0.007588  0.011289  0.077528  -0.008074  3.974249  -0.005
C  C257  1  0.42500155  0.76741680  0.44072126  1  -0.065465  -0.007586  0.011303  0.077481  -0.008072  3.974317  -0.005
C  C258  1  0.42500397  0.94072222  0.73258584  1  -0.066065  -0.007589  0.011277  0.077493  -0.008075  3.974379  -0.005
C  C259  1  0.42500273  0.05927794  0.26741581  1  -0.065413  -0.007587  0.011306  0.077534  -0.008073  3.974219  -0.005
C  C260  1  0.57499775  0.26741685  0.05927694  1  -0.065544  -0.007587  0.01123  0.077478  -0.008073  3.974285  -0.005
C  C261  1  0.57499715  0.73258425  0.94072247  1  -0.065525  -0.007586  0.01127  0.077477  -0.008072  3.97435  -0.005
C  C262  1  0.57499633  0.55927700  0.23258412  1  -0.065538  -0.007585  0.011227  0.077404  -0.008071  3.974421  -0.005
C  C263  1  0.57499778  0.44072187  0.76741618  1  -0.065441  -0.007588  0.011295  0.07756  -0.008073  3.974274  -0.005
C  C264  1  0.47543054  0.22442886  0.61438283  1  -0.025954  0.006817  -0.079289  -0.161589  0.003836  3.921928  0.006
C  C265  1  0.47542462  0.77557220  0.38561792  1  -0.026365  0.006815  -0.079284  -0.161583  0.003835  3.922101  0.006
C  C266  1  0.47542934  0.88561844  0.72442954  1  -0.025817  0.006817  -0.079299  -0.161609  0.003836  3.922054  0.006
C  C267  1  0.47542973  0.11438218  0.27557255  1  -0.0263  0.006817  -0.079286  -0.161569  0.003836  3.921958  0.006
C  C268  1  0.52457391  0.27557314  0.11438072  1  -0.026254  0.006817  -0.079278  -0.161603  0.003836  3.92198  0.006
C  C269  1  0.52457253  0.72442795  0.88561869  1  -0.026253  0.006817  -0.079264  -0.161604  0.003836  3.921971  0.006
C  C270  1  0.52457096  0.61438167  0.22442695  1  -0.026266  0.006817  -0.079271  -0.161595  0.003836  3.921921  0.006
C  C271  1  0.52457235  0.38561763  0.77557246  1  -0.026284  0.006818  -0.079295  -0.161628  0.003837  3.922018  0.006
C  C272  1  0.41833254  0.22931503  0.66684817  1  0.462333  -0.004131  0.046346  0.093103  -0.004344  3.917655  -0.002
C  C273  1  0.41833210  0.77068601  0.33315169  1  0.46233  -0.004131  0.046343  0.093119  -0.004343  3.917744  -0.002
C  C274  1  0.41833288  0.83315130  0.72931571  1  0.462234  -0.004133  0.046401  0.093183  -0.004346  3.917645  -0.002
C  C275  1  0.41833254  0.16684841  0.27068594  1  0.462286  -0.004132  0.046389  0.093198  -0.004345  3.917575  -0.002
C  C276  1  0.58167033  0.27068653  0.16684740  1  0.46234  -0.004132  0.046382  0.093162  -0.004345  3.91768  -0.002
C  C277  1  0.58166897  0.72931457  0.83315156  1  0.462326  -0.004132  0.04637  0.093198  -0.004344  3.917742  -0.002
C  C278  1  0.58166899  0.66684791  0.22931491  1  0.462331  -0.00413  0.04639  0.093209  -0.004343  3.917662  -0.002
C  C279  1  0.58167110  0.33315185  0.77068539  1  0.462356  -0.004132  0.046374  0.093158  -0.004344  3.9177  -0.002
C  C280  1  0.26603473  0.24972964  0.61434708  1  0.41688  -0.005517  0.046828  0.09235  -0.006208  3.93547  -0.004
C  C281  1  0.26603347  0.75027046  0.38565280  1  0.41689  -0.005516  0.046816  0.092436  -0.006207  3.93525  -0.004
C  C282  1  0.26603273  0.88565282  0.74973125  1  0.416864  -0.005517  0.046775  0.092302  -0.006209  3.93528  -0.004
C  C283  1  0.26603390  0.11434637  0.25026996  1  0.416871  -0.005517  0.046849  0.092489  -0.006208  3.935295  -0.004
C  C284  1  0.73396737  0.25027102  0.11434495  1  0.41685  -0.005516  0.046816  0.092363  -0.006208  3.935219  -0.004
C  C285  1  0.73396524  0.74972924  0.88565221  1  0.417135  -0.005517  0.046771  0.092233  -0.006208  3.935355  -0.004
C  C286  1  0.73396366  0.61434729  0.24972865  1  0.417153  -0.005516  0.046799  0.092276  -0.006207  3.935482  -0.004
C  C287  1  0.73396896  0.38565298  0.75027075  1  0.416831  -0.005517  0.046808  0.092412  -0.006209  3.935109  -0.004
C  C288  1  0.31767653  0.24554532  0.55993308  1  0.048105  0.006024  -0.075715  -0.149755  0.003476  3.928586  0.005
C  C289  1  0.31767449  0.75445524  0.44006679  1  0.04811  0.006022  -0.075779  -0.149905  0.003475  3.928623  0.005
C  C290  1  0.31767457  0.94006728  0.74554694  1  0.048062  0.006024  -0.075744  -0.149843  0.003476  3.928632  0.005
C  C291  1  0.31767411  0.05993238  0.25445427  1  0.048029  0.006023  -0.075767  -0.14993  0.003475  3.92866  0.005
C  C292  1  0.68232401  0.25445577  0.05993230  1  0.048162  0.006022  -0.075734  -0.14985  0.003475  3.928662  0.005
C  C293  1  0.68232343  0.74554582  0.94006665  1  0.047825  0.006024  -0.07573  -0.14975  0.003475  3.928511  0.005
C  C294  1  0.68232182  0.55993328  0.24554432  1  0.047911  0.006022  -0.075726  -0.14972  0.003475  3.928595  0.005
C  C295  1  0.68232562  0.44006787  0.75445463  1  0.048059  0.006024  -0.075766  -0.149944  0.003476  3.928503  0.005
N  N296  1  0.03719726  0.97237141  0.78958733  1  -1.18785  -0.000257  -0.31578  -0.302996  -0.000431  3.294396  0.0
N  N297  1  0.03719677  0.02762860  0.21041434  1  -1.187801  -0.000257  -0.315783  -0.303017  -0.000431  3.294245  0.0
N  N298  1  0.03719713  0.71041257  0.47237141  1  -1.187822  -0.000257  -0.31578  -0.303017  -0.000431  3.294283  0.0
N  N299  1  0.03719845  0.28958565  0.52762981  1  -1.187817  -0.000257  -0.315782  -0.303024  -0.000431  3.294306  0.0
N  N300  1  0.96280226  0.52762960  0.28958737  1  -1.1878  -0.000256  -0.315836  -0.303099  -0.00043  3.294183  0.0
N  N301  1  0.96280297  0.47237075  0.71041291  1  -1.187771  -0.000258  -0.315789  -0.30304  -0.000431  3.29423  0.0
N  N302  1  0.96280234  0.78958581  0.97237172  1  -1.187846  -0.000257  -0.315792  -0.303036  -0.00043  3.294467  0.0
N  N303  1  0.96280288  0.21041365  0.02762856  1  -1.187792  -0.000258  -0.315796  -0.303088  -0.000431  3.294201  0.0
N  N304  1  0.16704641  0.18242249  0.75685836  1  -1.198989  0.077463  -0.333583  -0.230168  0.04515  3.630486  0.069
N  N305  1  0.16704369  0.81757757  0.24313928  1  -1.199399  0.077464  -0.333638  -0.230263  0.045151  3.630661  0.069
N  N306  1  0.16704673  0.74314060  0.68242365  1  -1.19873  0.07745  -0.333622  -0.230178  0.045145  3.63041  0.069
N  N307  1  0.16704571  0.25685901  0.31757757  1  -1.198827  0.077452  -0.333587  -0.230152  0.045146  3.630548  0.069
N  N308  1  0.83295410  0.31757732  0.25685893  1  -1.198834  0.077451  -0.333618  -0.230197  0.045146  3.630746  0.069
N  N309  1  0.83295349  0.68242254  0.74314225  1  -1.198779  0.07745  -0.333613  -0.230198  0.045146  3.630555  0.069
N  N310  1  0.83295593  0.75685949  0.18242197  1  -1.199315  0.077455  -0.333688  -0.230281  0.045146  3.630781  0.069
N  N311  1  0.83295323  0.24314126  0.81757743  1  -1.198816  0.077456  -0.333624  -0.230192  0.045147  3.63053  0.069
N  N312  1  0.44662109  0.26036881  0.45578741  1  -1.200095  -0.000494  -0.31573  -0.301143  -0.000651  3.282627  0.0
N  N313  1  0.44661822  0.73963314  0.54421379  1  -1.199752  -0.000494  -0.315712  -0.301077  -0.000651  3.282536  0.0
N  N314  1  0.44662094  0.04421536  0.76036851  1  -1.200137  -0.000494  -0.315734  -0.301116  -0.000652  3.28257  0.0
N  N315  1  0.44662072  0.95578569  0.23963225  1  -1.200096  -0.000494  -0.315755  -0.301141  -0.000652  3.282539  0.0
N  N316  1  0.55337939  0.23963149  0.95578505  1  -1.200087  -0.000494  -0.315725  -0.301093  -0.000652  3.282533  0.0
N  N317  1  0.55337899  0.76036826  0.04421570  1  -1.20013  -0.000494  -0.315706  -0.301077  -0.000651  3.282516  0.0
N  N318  1  0.55337723  0.45578623  0.26036913  1  -1.20013  -0.000494  -0.315805  -0.301246  -0.000651  3.282623  0.0
N  N319  1  0.55337958  0.54421352  0.73963162  1  -1.200178  -0.000494  -0.315728  -0.301105  -0.000652  3.282629  0.0
N  N320  1  0.31518818  0.24203963  0.66714680  1  -1.220513  0.081244  -0.332984  -0.221544  0.047226  3.629454  0.072
N  N321  1  0.31518616  0.75796093  0.33285173  1  -1.220492  0.081237  -0.332953  -0.221521  0.047222  3.629219  0.072
N  N322  1  0.31518695  0.83285131  0.74204122  1  -1.220494  0.081243  -0.332959  -0.221506  0.047225  3.629208  0.072
N  N323  1  0.31518740  0.16714746  0.25796088  1  -1.220455  0.081243  -0.333042  -0.221691  0.047226  3.629392  0.072
N  N324  1  0.68481313  0.25796283  0.16714736  1  -1.220463  0.081242  -0.33298  -0.221505  0.047225  3.62925  0.072
N  N325  1  0.68481178  0.74203831  0.83285249  1  -1.220564  0.081244  -0.332952  -0.221501  0.047226  3.629401  0.072
N  N326  1  0.68481022  0.66714656  0.24203818  1  -1.220543  0.081239  -0.332996  -0.221552  0.047223  3.629509  0.072
N  N327  1  0.68481390  0.33285190  0.75796166  1  -1.220551  0.081244  -0.332993  -0.221543  0.047226  3.629309  0.072
O  O328  1  0.87520366  0.81092221  0.78383072  1  -1.139251  0.084627  -0.310759  -0.53071  0.047989  2.27391  0.076
O  O329  1  0.87520336  0.18907677  0.21616822  1  -1.139005  0.084627  -0.310744  -0.530699  0.04799  2.273978  0.076
O  O330  1  0.87520678  0.71617017  0.31092339  1  -1.139274  0.084628  -0.310765  -0.530702  0.04799  2.274014  0.076
O  O331  1  0.87520337  0.28383060  0.68907913  1  -1.139124  0.084628  -0.310796  -0.530743  0.047991  2.273934  0.076
O  O332  1  0.12479507  0.68907612  0.28382817  1  -1.139205  0.084622  -0.310801  -0.530698  0.047988  2.27417  0.076
O  O333  1  0.12479559  0.31092257  0.71616858  1  -1.139333  0.084633  -0.310768  -0.530688  0.047992  2.273907  0.076
O  O334  1  0.12479898  0.78383175  0.81092240  1  -1.138986  0.084627  -0.310747  -0.530716  0.047991  2.273946  0.076
O  O335  1  0.12479559  0.21616919  0.18907659  1  -1.13922  0.084628  -0.310743  -0.530657  0.047989  2.273927  0.076
O  O336  1  0.72433894  0.85623484  0.76441658  1  -1.137576  0.074654  -0.30986  -0.519556  0.042117  2.158315  0.066
O  O337  1  0.72434015  0.14376542  0.23558372  1  -1.137617  0.074646  -0.309841  -0.519487  0.042112  2.158397  0.066
O  O338  1  0.72433891  0.73558072  0.35623471  1  -1.137557  0.074647  -0.309794  -0.519519  0.042112  2.158365  0.066
O  O339  1  0.72433784  0.26441641  0.64376826  1  -1.13752  0.074649  -0.30983  -0.519471  0.042115  2.158282  0.066
O  O340  1  0.27565588  0.64376393  0.26441356  1  -1.137696  0.074641  -0.309804  -0.519442  0.042108  2.158555  0.066
O  O341  1  0.27566193  0.35623438  0.73558274  1  -1.137639  0.074641  -0.309809  -0.519466  0.042109  2.158305  0.066
O  O342  1  0.27566137  0.76441673  0.85623416  1  -1.137637  0.074658  -0.309858  -0.519532  0.042119  2.158394  0.066
O  O343  1  0.27566270  0.23558158  0.14376437  1  -1.137521  0.074655  -0.309843  -0.519546  0.042117  2.158285  0.066
O  O344  1  0.75691621  0.21816179  0.34274112  1  -1.139173  0.067004  -0.309731  -0.528192  0.037954  2.191618  0.059
O  O345  1  0.75691728  0.78183893  0.65725783  1  -1.139201  0.06701  -0.309751  -0.528245  0.037958  2.191524  0.059
O  O346  1  0.75692240  0.15725857  0.71816951  1  -1.139024  0.067009  -0.309763  -0.528243  0.037958  2.191457  0.059
O  O347  1  0.75691813  0.84274259  0.28183704  1  -1.13919  0.067007  -0.309717  -0.528218  0.037956  2.191566  0.059
O  O348  1  0.24308195  0.28183535  0.84274191  1  -1.138973  0.067005  -0.309735  -0.528195  0.037956  2.191463  0.059
O  O349  1  0.24307600  0.71816741  0.15725752  1  -1.138964  0.06701  -0.309797  -0.528263  0.03796  2.191611  0.059
O  O350  1  0.24308438  0.34274122  0.21816117  1  -1.139148  0.067009  -0.309707  -0.52818  0.037957  2.191515  0.059
O  O351  1  0.24308451  0.65726065  0.78183870  1  -1.139181  0.067011  -0.309751  -0.528253  0.037958  2.191603  0.059
O  O352  1  0.62309202  0.26341407  0.29839318  1  -1.140173  0.078762  -0.306995  -0.527723  0.04484  2.287489  0.07
O  O353  1  0.62309695  0.73658660  0.70160711  1  -1.139953  0.078753  -0.307021  -0.527784  0.044836  2.287779  0.07
O  O354  1  0.62309508  0.20160784  0.76341646  1  -1.140066  0.078761  -0.306959  -0.527696  0.044839  2.287477  0.07
O  O355  1  0.62309468  0.79839372  0.23658473  1  -1.140204  0.078754  -0.307016  -0.527779  0.044836  2.287681  0.07
O  O356  1  0.37690613  0.23658261  0.79839306  1  -1.140287  0.07876  -0.306998  -0.527752  0.044839  2.287529  0.07
O  O357  1  0.37690492  0.76341529  0.20160591  1  -1.139972  0.078757  -0.306997  -0.52772  0.044838  2.287567  0.07
O  O358  1  0.37690622  0.29839241  0.26341437  1  -1.140052  0.078756  -0.306998  -0.527711  0.044837  2.287574  0.07
O  O359  1  0.37690406  0.70160817  0.73658729  1  -1.140228  0.078757  -0.306987  -0.527751  0.044837  2.287703  0.07
