# generated using pymatgen
data_CuP2H27C35NCl
_symmetry_space_group_name_H-M   'P 1'
_cell_length_a   18.38514967
_cell_length_b   18.38515774
_cell_length_c   21.19221278
_cell_angle_alpha   89.98773296
_cell_angle_beta   90.01227497
_cell_angle_gamma   120.01625375
_symmetry_Int_Tables_number   1
_chemical_formula_structural   CuP2H27C35NCl
_chemical_formula_sum   'Cu6 P12 H162 C210 N6 Cl6'
_cell_volume   6202.55038201
_cell_formula_units_Z   6
loop_
 _symmetry_equiv_pos_site_id
 _symmetry_equiv_pos_as_xyz
  1  'x, y, z'
loop_
 _atom_site_type_symbol
 _atom_site_label
 _atom_site_symmetry_multiplicity
 _atom_site_fract_x
 _atom_site_fract_y
 _atom_site_fract_z
 _atom_site_occupancy
 _atom_site_pbe_bader_charge
 _atom_site_pbe_bader_spin_density
 _atom_site_pbe_cm5_charge
 _atom_site_pbe_ddec_charge
 _atom_site_pbe_ddec_spin_density
 _atom_site_pbe_ddec_sum_bond_order
 _atom_site_pbe_magmom
Cu  Cu0  1  0.49318600  0.15950541  0.34289231  1  0.434153  0  0.431423  0.03553  0  3.014158  0
Cu  Cu1  1  0.84075032  0.33380008  0.00954208  1  0.439092  0  0.43171  0.035862  0  3.014818  0
Cu  Cu2  1  0.66628510  0.50683549  0.67616698  1  0.436784  0  0.431705  0.0359  0  3.014717  0
Cu  Cu3  1  0.15950664  0.49318561  0.65710855  1  0.434015  0  0.431407  0.035494  0  3.014294  0
Cu  Cu4  1  0.33379848  0.84074945  0.99045786  1  0.439148  0  0.431713  0.035857  0  3.01481  0
Cu  Cu5  1  0.50683697  0.66628668  0.32383250  1  0.436588  0  0.431698  0.035931  0  3.014645  0
P  P6  1  0.61766368  0.26368576  0.30861793  1  1.389794  0  -0.02402  0.238653  0  4.173988  0
P  P7  1  0.73655512  0.35398523  0.97525792  1  1.381329  0  -0.024447  0.237421  0  4.177648  0
P  P8  1  0.64598944  0.38237559  0.64195511  1  1.382651  0  -0.024182  0.237517  0  4.175575  0
P  P9  1  0.26368648  0.61766271  0.69138294  1  1.389935  0  -0.023999  0.238646  0  4.17397  0
P  P10  1  0.35398469  0.73655408  0.02474155  1  1.381335  0  -0.024421  0.237431  0  4.177687  0
P  P11  1  0.38237560  0.64599024  0.35804530  1  1.382713  0  -0.024178  0.237465  0  4.175641  0
P  P12  1  0.85842462  0.33020910  0.11386115  1  1.375816  0  -0.027245  0.236306  0  4.169396  0
P  P13  1  0.66997897  0.52804935  0.78047159  1  1.405117  0  -0.027263  0.237272  0  4.169959  0
P  P14  1  0.47182890  0.14170828  0.44717934  1  1.406845  0  -0.027125  0.237364  0  4.170045  0
P  P15  1  0.33020888  0.85842450  0.88613927  1  1.375764  0  -0.027217  0.236362  0  4.169273  0
P  P16  1  0.52804865  0.66997837  0.21952741  1  1.404942  0  -0.027239  0.237365  0  4.169945  0
P  P17  1  0.14170855  0.47182944  0.55282104  1  1.406879  0  -0.02711  0.237365  0  4.170125  0
H  H18  1  0.33847166  0.97918319  0.06338180  1  0.100184  0  0.105021  0.090238  0  1.018945  0
H  H19  1  0.02091474  0.35923093  0.72982681  1  0.140527  0  0.104889  0.090446  0  1.019604  0
H  H20  1  0.64071681  0.66146229  0.39657020  1  0.112262  0  0.104934  0.090405  0  1.018247  0
H  H21  1  0.97918336  0.33847001  0.93661626  1  0.100144  0  0.105055  0.090273  0  1.018849  0
H  H22  1  0.35923282  0.02091634  0.27017404  1  0.140577  0  0.104863  0.090371  0  1.019532  0
H  H23  1  0.66146128  0.64071461  0.60343023  1  0.112283  0  0.104947  0.090423  0  1.018231  0
H  H24  1  0.44332658  0.10540213  0.12416141  1  0.079344  0  0.113144  0.124013  0  0.984332  0
H  H25  1  0.89482308  0.33781359  0.79076624  1  0.091506  0  0.113097  0.124067  0  0.984493  0
H  H26  1  0.66189856  0.55668284  0.45756089  1  0.083845  0  0.11299  0.123866  0  0.984741  0
H  H27  1  0.10540127  0.44332726  0.87583520  1  0.079283  0  0.113144  0.124007  0  0.984299  0
H  H28  1  0.33781317  0.89482401  0.20923324  1  0.091514  0  0.113133  0.124118  0  0.984439  0
H  H29  1  0.55668175  0.66189631  0.54243906  1  0.083887  0  0.112953  0.123804  0  0.984791  0
H  H30  1  0.63357616  0.04824162  0.06252493  1  0.10912  0  0.114538  0.128157  0  0.979801  0
H  H31  1  0.95191345  0.58525447  0.72910000  1  0.09304  0  0.114537  0.128163  0  0.979407  0
H  H32  1  0.41435981  0.36643259  0.39590792  1  0.110488  0  0.114574  0.128043  0  0.979646  0
H  H33  1  0.04824022  0.63357501  0.93747498  1  0.109158  0  0.114519  0.128175  0  0.979778  0
H  H34  1  0.58525390  0.95191036  0.27089950  1  0.092943  0  0.114551  0.128115  0  0.979372  0
H  H35  1  0.36643178  0.41435735  0.60409201  1  0.110444  0  0.11455  0.127996  0  0.979668  0
H  H36  1  0.52184636  0.92813369  0.00227356  1  0.088222  0  0.111259  0.077142  0  1.011357  0
H  H37  1  0.07204756  0.59378344  0.66885485  1  0.064295  0  0.111519  0.077537  0  1.01143  0
H  H38  1  0.40606910  0.47815383  0.33558878  1  0.076092  0  0.111211  0.076918  0  1.011264  0
H  H39  1  0.92813325  0.52184406  0.99772640  1  0.088306  0  0.111274  0.077205  0  1.011274  0
H  H40  1  0.59378517  0.07204515  0.33114601  1  0.064319  0  0.111523  0.07756  0  1.011442  0
H  H41  1  0.47815247  0.40606731  0.66441115  1  0.0761  0  0.111203  0.076939  0  1.011249  0
H  H42  1  0.52495381  0.14563360  0.21092826  1  0.096723  0  0.09991  0.098233  0  1.062552  0
H  H43  1  0.85453149  0.37920740  0.87758159  1  0.072939  0  0.099847  0.097682  0  1.063121  0
H  H44  1  0.62043674  0.47505429  0.54438188  1  0.124262  0  0.099773  0.09786  0  1.062479  0
H  H45  1  0.14563381  0.52495554  0.78907119  1  0.095456  0  0.099899  0.09825  0  1.062591  0
H  H46  1  0.37920600  0.85453018  0.12241742  1  0.07308  0  0.099864  0.097671  0  1.063148  0
H  H47  1  0.47505487  0.62043494  0.45561900  1  0.124244  0  0.099756  0.097786  0  1.062507  0
H  H48  1  0.78021765  0.34466309  0.23609509  1  0.088018  0  0.10103  0.101587  0  1.027038  0
H  H49  1  0.65557321  0.43543058  0.90268223  1  0.073381  0  0.1011  0.101895  0  1.026815  0
H  H50  1  0.56442363  0.21988132  0.56942323  1  0.0797  0  0.101058  0.101496  0  1.026631  0
H  H51  1  0.34466483  0.78021888  0.76390532  1  0.08798  0  0.101044  0.101619  0  1.027011  0
H  H52  1  0.43542927  0.65557203  0.09731724  1  0.073344  0  0.101068  0.101892  0  1.026809  0
H  H53  1  0.21988291  0.56442607  0.43057858  1  0.07967  0  0.101057  0.101517  0  1.026661  0
H  H54  1  0.71254675  0.18948753  0.07010213  1  0.114338  0  0.097189  0.100792  0  1.054447  0
H  H55  1  0.81079528  0.52304014  0.73671481  1  0.125378  0  0.097287  0.101055  0  1.054248  0
H  H56  1  0.47669595  0.28752364  0.40349739  1  0.092116  0  0.097291  0.100886  0  1.054129  0
H  H57  1  0.18948579  0.71254708  0.92989591  1  0.114647  0  0.097175  0.100759  0  1.054552  0
H  H58  1  0.52303941  0.81079461  0.26328373  1  0.125418  0  0.097277  0.101043  0  1.054277  0
H  H59  1  0.28752386  0.47669451  0.59650347  1  0.092099  0  0.097287  0.100871  0  1.054129  0
H  H60  1  0.49905352  0.31377590  0.27520604  1  0.139409  0  0.085063  0.105742  0  1.068744  0
H  H61  1  0.68643483  0.18522305  0.94185382  1  0.127571  0  0.085107  0.105816  0  1.06873  0
H  H62  1  0.81471509  0.50095447  0.60838659  1  0.130933  0  0.085057  0.105346  0  1.068651  0
H  H63  1  0.31377918  0.49905450  0.72479483  1  0.139482  0  0.085052  0.105735  0  1.068759  0
H  H64  1  0.18522235  0.68643495  0.05814470  1  0.127568  0  0.085072  0.10574  0  1.068764  0
H  H65  1  0.50095343  0.81471474  0.39161384  1  0.130947  0  0.085064  0.105351  0  1.068672  0
H  H66  1  0.51159521  0.45146507  0.24739460  1  0.077032  0  0.098213  0.09713  0  1.017814  0
H  H67  1  0.54875717  0.06007193  0.91392871  1  0.077368  0  0.098199  0.097131  0  1.01799  0
H  H68  1  0.93987454  0.48842665  0.58070193  1  0.090017  0  0.098313  0.097208  0  1.017953  0
H  H69  1  0.45146921  0.51159763  0.75260487  1  0.077041  0  0.09822  0.097191  0  1.017871  0
H  H70  1  0.06007174  0.54875789  0.08607120  1  0.077299  0  0.098199  0.097167  0  1.017966  0
H  H71  1  0.48842728  0.93987458  0.41929850  1  0.090063  0  0.098292  0.097183  0  1.017975  0
H  H72  1  0.64920647  0.58309041  0.25691375  1  0.073353  0  0.093172  0.084758  0  1.054786  0
H  H73  1  0.41710843  0.06598722  0.92348077  1  0.081571  0  0.092963  0.08378  0  1.054289  0
H  H74  1  0.93393536  0.35088011  0.59046348  1  0.073063  0  0.09313  0.084176  0  1.054467  0
H  H75  1  0.58309372  0.64920862  0.74308431  1  0.073307  0  0.09316  0.084774  0  1.054739  0
H  H76  1  0.06598512  0.41710790  0.07652008  1  0.081559  0  0.092939  0.083734  0  1.054242  0
H  H77  1  0.35088058  0.93393653  0.40953695  1  0.073042  0  0.093136  0.08421  0  1.054386  0
H  H78  1  0.77616012  0.57731870  0.29020905  1  0.067924  0  0.098584  0.093358  0  0.998205  0
H  H79  1  0.42296260  0.19876801  0.95672414  1  0.028094  0  0.09849  0.093201  0  0.997892  0
H  H80  1  0.80108751  0.22390563  0.62367749  1  0.065407  0  0.098596  0.093578  0  0.998023  0
H  H81  1  0.57731822  0.77616158  0.70978902  1  0.067888  0  0.098591  0.093326  0  0.998186  0
H  H82  1  0.19876622  0.42296296  0.04327578  1  0.028096  0  0.098511  0.09322  0  0.997905  0
H  H83  1  0.22390574  0.80108903  0.37632198  1  0.065383  0  0.098574  0.093522  0  0.998036  0
H  H84  1  0.76526364  0.44060011  0.31514214  1  0.078646  0  0.098367  0.098097  0  1.015076  0
H  H85  1  0.55967533  0.32461203  0.98159608  1  0.067749  0  0.098477  0.098102  0  1.015675  0
H  H86  1  0.67524289  0.23477159  0.64839227  1  0.052682  0  0.098459  0.09797  0  1.015556  0
H  H87  1  0.44059886  0.76526249  0.68485875  1  0.07867  0  0.098393  0.09812  0  1.015126  0
H  H88  1  0.32461067  0.55967416  0.01840290  1  0.067722  0  0.098474  0.098094  0  1.015705  0
H  H89  1  0.23477119  0.67524393  0.35160813  1  0.052688  0  0.098427  0.097921  0  1.015585  0
H  H90  1  0.68810239  0.36209974  0.42326689  1  0.09291  0  0.099142  0.102231  0  1.018169  0
H  H91  1  0.63786410  0.32602214  0.08961990  1  0.046182  0  0.098933  0.101859  0  1.018344  0
H  H92  1  0.67407334  0.31195045  0.75651859  1  0.041423  0  0.09895  0.101863  0  1.017887  0
H  H93  1  0.36210062  0.68810342  0.57673164  1  0.092903  0  0.09912  0.102214  0  1.018207  0
H  H94  1  0.32602401  0.63786426  0.91038051  1  0.046256  0  0.098922  0.101848  0  1.01831  0
H  H95  1  0.31195094  0.67407463  0.24348229  1  0.041387  0  0.098964  0.101855  0  1.017944  0
H  H96  1  0.79435123  0.37223103  0.49935706  1  0.101147  0  0.096042  0.097039  0  1.049883  0
H  H97  1  0.62762588  0.42206584  0.16567996  1  0.086383  0  0.096364  0.097311  0  1.049347  0
H  H98  1  0.57800611  0.20575158  0.83267675  1  0.097548  0  0.096375  0.097648  0  1.049734  0
H  H99  1  0.37223071  0.79435228  0.50064241  1  0.101037  0  0.096034  0.09702  0  1.049879  0
H  H100  1  0.42206690  0.62762583  0.83432092  1  0.086422  0  0.09636  0.097322  0  1.049317  0
H  H101  1  0.20575179  0.57800655  0.16732412  1  0.097589  0  0.096368  0.097626  0  1.049777  0
H  H102  1  0.87225471  0.29608055  0.48010626  1  0.070553  0  0.096795  0.090497  0  1.033808  0
H  H103  1  0.70394810  0.57620350  0.14650958  1  0.072249  0  0.096868  0.090455  0  1.03377  0
H  H104  1  0.42390325  0.12779498  0.81348008  1  0.081911  0  0.097053  0.090519  0  1.033865  0
H  H105  1  0.29608156  0.87225646  0.51989510  1  0.070553  0  0.096819  0.090517  0  1.03385  0
H  H106  1  0.57620440  0.70394719  0.85349085  1  0.072324  0  0.096878  0.09046  0  1.033833  0
H  H107  1  0.12779457  0.42390439  0.18652125  1  0.081951  0  0.097074  0.090575  0  1.033811  0
H  H108  1  0.84372660  0.20994670  0.38271875  1  0.037288  0  0.097868  0.09317  0  1.004553  0
H  H109  1  0.79032290  0.63392817  0.04921235  1  0.084013  0  0.098096  0.093322  0  1.004056  0
H  H110  1  0.36614578  0.15617256  0.71611085  1  0.039402  0  0.097994  0.093195  0  1.004115  0
H  H111  1  0.20994700  0.84372579  0.61728307  1  0.037291  0  0.097839  0.093122  0  1.004607  0
H  H112  1  0.63392995  0.79032221  0.95078809  1  0.084111  0  0.09808  0.093313  0  1.004061  0
H  H113  1  0.15617338  0.36614689  0.28388953  1  0.039429  0  0.098011  0.09322  0  1.00413  0
H  H114  1  0.73695211  0.19907886  0.30593448  1  0.050863  0  0.09721  0.09603  0  1.023597  0
H  H115  1  0.80135372  0.53808981  0.97251283  1  0.07562  0  0.097404  0.096173  0  1.023406  0
H  H116  1  0.46197736  0.26297051  0.63928633  1  0.055669  0  0.096965  0.095585  0  1.023007  0
H  H117  1  0.19907873  0.73694965  0.69406593  1  0.050885  0  0.097208  0.096051  0  1.023606  0
H  H118  1  0.53809053  0.80135262  0.02748807  1  0.075587  0  0.097401  0.096168  0  1.023416  0
H  H119  1  0.26297020  0.46197854  0.36071453  1  0.055673  0  0.096967  0.095598  0  1.023009  0
H  H120  1  0.85940965  0.25011043  0.23639340  1  0.071747  0  0.097483  0.09423  0  1.031095  0
H  H121  1  0.74991936  0.60921548  0.90314390  1  0.057742  0  0.097444  0.093776  0  1.031038  0
H  H122  1  0.39079301  0.14058595  0.56975516  1  0.071764  0  0.097539  0.093639  0  1.03124  0
H  H123  1  0.25010943  0.85941129  0.76360513  1  0.071861  0  0.097502  0.094257  0  1.031026  0
H  H124  1  0.60921587  0.74991980  0.09685464  1  0.057723  0  0.097438  0.093784  0  1.031023  0
H  H125  1  0.14058637  0.39079562  0.43024475  1  0.071771  0  0.09754  0.093685  0  1.031186  0
H  H126  1  0.93976970  0.18263031  0.27274499  1  0.047856  0  0.099045  0.093334  0  1.003312  0
H  H127  1  0.81717345  0.75711387  0.93940494  1  0.062233  0  0.099119  0.093199  0  1.003152  0
H  H128  1  0.24292169  0.06008975  0.60608442  1  0.056001  0  0.099005  0.092905  0  1.00347  0
H  H129  1  0.18262924  0.93977126  0.72725542  1  0.047846  0  0.099047  0.093331  0  1.003291  0
H  H130  1  0.75711478  0.81717561  0.06059551  1  0.062252  0  0.099125  0.093213  0  1.003143  0
H  H131  1  0.06009079  0.24292372  0.39391595  1  0.056026  0  0.099011  0.09293  0  1.003448  0
H  H132  1  0.03727700  0.16777355  0.19903837  1  0.031696  0  0.103687  0.097638  0  0.99179  0
H  H133  1  0.83192576  0.86935928  0.86559425  1  0.081424  0  0.103505  0.097247  0  0.991824  0
H  H134  1  0.13053092  0.96261156  0.53235612  1  0.055111  0  0.103552  0.097581  0  0.991572  0
H  H135  1  0.16777165  0.03727801  0.80096246  1  0.031637  0  0.103683  0.097657  0  0.99174  0
H  H136  1  0.86935941  0.83192772  0.13440573  1  0.081426  0  0.103504  0.097225  0  0.991877  0
H  H137  1  0.96261521  0.13053344  0.46764429  1  0.055175  0  0.103588  0.097616  0  0.991517  0
H  H138  1  0.05051891  0.21708656  0.08790175  1  0.060993  0  0.103043  0.098755  0  0.988157  0
H  H139  1  0.78268912  0.83318536  0.75445599  1  0.072042  0  0.103278  0.099357  0  0.987662  0
H  H140  1  0.16656242  0.94942476  0.42120760  1  0.065504  0  0.10317  0.099193  0  0.987318  0
H  H141  1  0.21708628  0.05051838  0.91209909  1  0.060972  0  0.10305  0.098737  0  0.988195  0
H  H142  1  0.83318527  0.78269026  0.24554399  1  0.072058  0  0.1033  0.099388  0  0.98757  0
H  H143  1  0.94942763  0.16656353  0.57879329  1  0.065315  0  0.10319  0.099189  0  0.987334  0
H  H144  1  0.96683593  0.28138338  0.05077473  1  0.106698  0  0.095274  0.099383  0  1.040664  0
H  H145  1  0.71860623  0.68514178  0.71741998  1  0.078951  0  0.095249  0.099507  0  1.040923  0
H  H146  1  0.31460716  0.03321232  0.38411769  1  0.095741  0  0.095243  0.099449  0  1.040717  0
H  H147  1  0.28138279  0.96683606  0.94922475  1  0.106714  0  0.095292  0.09941  0  1.040644  0
H  H148  1  0.68514086  0.71860597  0.28257951  1  0.078886  0  0.095261  0.099529  0  1.040903  0
H  H149  1  0.03321398  0.31460854  0.61588268  1  0.095722  0  0.095232  0.099467  0  1.040695  0
H  H150  1  0.98741336  0.40005138  0.21959274  1  0.062875  0  0.095109  0.091578  0  1.050824  0
H  H151  1  0.60014894  0.58714305  0.88608522  1  0.06774  0  0.095228  0.091296  0  1.051114  0
H  H152  1  0.41268931  0.01268142  0.55286332  1  0.071246  0  0.094932  0.091153  0  1.050839  0
H  H153  1  0.40005246  0.98741512  0.78040722  1  0.06284  0  0.095131  0.091607  0  1.050767  0
H  H154  1  0.58714216  0.60014752  0.11391426  1  0.067771  0  0.09518  0.091223  0  1.051092  0
H  H155  1  0.01267990  0.41268937  0.44713611  1  0.071245  0  0.094934  0.091172  0  1.050807  0
H  H156  1  0.05041451  0.53503620  0.27656183  1  0.056595  0  0.099633  0.097281  0  1.005884  0
H  H157  1  0.46514485  0.51527289  0.94297855  1  0.070511  0  0.099768  0.097652  0  1.005351  0
H  H158  1  0.48462302  0.94959705  0.60976580  1  0.049063  0  0.099451  0.096769  0  1.005471  0
H  H159  1  0.53503702  0.05041310  0.72343808  1  0.056628  0  0.099625  0.097294  0  1.005856  0
H  H160  1  0.51527221  0.46514434  0.05702138  1  0.07026  0  0.099757  0.097635  0  1.005386  0
H  H161  1  0.94959519  0.48462307  0.39023417  1  0.049035  0  0.099466  0.096763  0  1.005461  0
H  H162  1  0.00842394  0.64119314  0.25012565  1  0.058481  0  0.101092  0.09541  0  0.995237  0
H  H163  1  0.35883705  0.36715971  0.91654253  1  0.064223  0  0.101093  0.095395  0  0.995361  0
H  H164  1  0.63271152  0.99145195  0.58324044  1  0.056213  0  0.101205  0.095408  0  0.995263  0
H  H165  1  0.64119349  0.00842205  0.74987569  1  0.0585  0  0.101094  0.095406  0  0.995258  0
H  H166  1  0.36715852  0.35883484  0.08345834  1  0.064615  0  0.101096  0.095401  0  0.995359  0
H  H167  1  0.99145148  0.63271228  0.41675859  1  0.056184  0  0.101186  0.095385  0  0.995262  0
H  H168  1  0.90324428  0.61061203  0.16453292  1  0.057956  0  0.100037  0.095516  0  1.002621  0
H  H169  1  0.38924956  0.29250393  0.83095574  1  0.058003  0  0.100184  0.095967  0  1.002636  0
H  H170  1  0.70729466  0.09654509  0.49760740  1  0.096276  0  0.100229  0.096103  0  1.00283  0
H  H171  1  0.61061055  0.90324343  0.83547083  1  0.057932  0  0.100003  0.095545  0  1.002539  0
H  H172  1  0.29250325  0.38924787  0.16904465  1  0.057969  0  0.100183  0.096005  0  1.002679  0
H  H173  1  0.09654503  0.70729418  0.50239253  1  0.096274  0  0.100207  0.096076  0  1.002856  0
H  H174  1  0.84181260  0.47633452  0.10641832  1  0.073364  0  0.092317  0.085453  0  1.078175  0
H  H175  1  0.52361840  0.36519539  0.77293072  1  0.081277  0  0.092166  0.085071  0  1.078939  0
H  H176  1  0.63456366  0.15820459  0.43962646  1  0.080232  0  0.092271  0.085018  0  1.078276  0
H  H177  1  0.47633359  0.84181551  0.89358447  1  0.07331  0  0.092313  0.085445  0  1.078183  0
H  H178  1  0.36519441  0.52361699  0.22706921  1  0.081259  0  0.092182  0.085117  0  1.078871  0
H  H179  1  0.15820342  0.63456334  0.56037299  1  0.080275  0  0.092258  0.084976  0  1.078268  0
C  C180  1  0.40515976  0.99846710  0.06401615  1  0.517071  0  0.039058  0.083836  0  3.940855  0
C  C181  1  0.00165812  0.40663997  0.73053456  1  0.424723  0  0.038723  0.082714  0  3.941116  0
C  C182  1  0.59320170  0.59479529  0.39729630  1  0.486853  0  0.038996  0.082985  0  3.940857  0
C  C183  1  0.99846609  0.40515817  0.93598239  1  0.517156  0  0.039087  0.083887  0  3.940641  0
C  C184  1  0.40664260  0.00165795  0.26946581  1  0.424749  0  0.038736  0.082737  0  3.941029  0
C  C185  1  0.59479588  0.59320114  0.60270271  1  0.486815  0  0.039028  0.083033  0  3.940733  0
C  C186  1  0.46347983  0.06721688  0.09839981  1  -0.074068  0  -0.08041  -0.168711  0  3.943796  0
C  C187  1  0.93296378  0.39618422  0.76497990  1  -0.016414  0  -0.08032  -0.168084  0  3.942569  0
C  C188  1  0.60354450  0.53651730  0.43178750  1  -0.004365  0  -0.080341  -0.167859  0  3.944088  0
C  C189  1  0.06721794  0.46348182  0.90159821  1  -0.074047  0  -0.080392  -0.168693  0  3.943918  0
C  C190  1  0.39618531  0.93296431  0.23502053  1  -0.016196  0  -0.080376  -0.168209  0  3.942664  0
C  C191  1  0.53651676  0.60354282  0.56821197  1  -0.004742  0  -0.080363  -0.167889  0  3.944186  0
C  C192  1  0.54772886  0.08709158  0.09930046  1  0.046184  0  0.013343  0.116759  0  3.978005  0
C  C193  1  0.91310308  0.46056021  0.76590214  1  0.016993  0  0.013331  0.116129  0  3.979501  0
C  C194  1  0.53908903  0.45227499  0.43273732  1  -0.049708  0  0.013137  0.115713  0  3.980408  0
C  C195  1  0.08708953  0.54772519  0.90069757  1  0.046154  0  0.013327  0.116765  0  3.977941  0
C  C196  1  0.46056089  0.91310192  0.23409641  1  0.016749  0  0.013345  0.116138  0  3.979482  0
C  C197  1  0.45227551  0.53908846  0.56726214  1  -0.049572  0  0.013158  0.115758  0  3.980398  0
C  C198  1  0.56913249  0.03603939  0.06382953  1  -0.114868  0  -0.07828  -0.164653  0  3.93126  0
C  C199  1  0.96412862  0.53303310  0.73040740  1  -0.067293  0  -0.078518  -0.164614  0  3.932562  0
C  C200  1  0.46664526  0.43088738  0.39721812  1  -0.068728  0  -0.07783  -0.163887  0  3.932698  0
C  C201  1  0.03603714  0.56913115  0.93616991  1  -0.114874  0  -0.078237  -0.164668  0  3.931123  0
C  C202  1  0.53303209  0.96412700  0.26959210  1  -0.067252  0  -0.078487  -0.164473  0  3.932738  0
C  C203  1  0.43088566  0.46664372  0.60278134  1  -0.068888  0  -0.077793  -0.163849  0  3.932634  0
C  C204  1  0.50708829  0.96879727  0.03035704  1  0.484346  0  0.039519  0.079301  0  3.970715  0
C  C205  1  0.03136669  0.53829137  0.69691512  1  0.483399  0  0.039314  0.078856  0  3.972258  0
C  C206  1  0.46151073  0.49290457  0.36367976  1  0.501001  0  0.03962  0.079635  0  3.970601  0
C  C207  1  0.96879739  0.50708655  0.96964198  1  0.484325  0  0.039558  0.07931  0  3.970728  0
C  C208  1  0.53829113  0.03136296  0.30308479  1  0.484017  0  0.039228  0.078652  0  3.972505  0
C  C209  1  0.49290491  0.46150936  0.63631970  1  0.501147  0  0.039654  0.079665  0  3.970535  0
C  C210  1  0.61119832  0.15823988  0.13633883  1  0.016344  0  -0.008244  0.066043  0  4.001229  0
C  C211  1  0.84199486  0.45289312  0.80295656  1  -0.008049  0  -0.008263  0.066017  0  3.99995  0
C  C212  1  0.54675935  0.38882210  0.46978583  1  -0.053941  0  -0.008357  0.065693  0  4.001649  0
C  C213  1  0.15823837  0.61119955  0.86366110  1  0.0207  0  -0.008252  0.066098  0  4.000973  0
C  C214  1  0.45289372  0.84199490  0.19704292  1  -0.008309  0  -0.008234  0.066125  0  3.999815  0
C  C215  1  0.38882203  0.54675820  0.53021457  1  -0.053918  0  -0.008319  0.065689  0  4.001742  0
C  C216  1  0.58938350  0.18051822  0.19380254  1  -0.036351  0  -0.080214  -0.13318  0  3.931247  0
C  C217  1  0.81969439  0.40877806  0.86042922  1  -0.023913  0  -0.080242  -0.13201  0  3.93103  0
C  C218  1  0.59089678  0.41063561  0.52722882  1  -0.06069  0  -0.080492  -0.133537  0  3.931284  0
C  C219  1  0.18051875  0.58938488  0.80619691  1  -0.03926  0  -0.080215  -0.133325  0  3.931138  0
C  C220  1  0.40877746  0.81969451  0.13957026  1  -0.023845  0  -0.080216  -0.132007  0  3.930963  0
C  C221  1  0.41063630  0.59089700  0.47277206  1  -0.060717  0  -0.08048  -0.133459  0  3.931308  0
C  C222  1  0.64994594  0.24516037  0.23086814  1  -0.495551  0  -0.023478  -0.029757  0  3.952744  0
C  C223  1  0.75506911  0.40470820  0.89748438  1  -0.479369  0  -0.023485  -0.030244  0  3.954678  0
C  C224  1  0.59506839  0.35009601  0.56424559  1  -0.468524  0  -0.02335  -0.029075  0  3.953333  0
C  C225  1  0.24516295  0.64994745  0.76913085  1  -0.495622  0  -0.023471  -0.029672  0  3.952446  0
C  C226  1  0.40470707  0.75506872  0.10251415  1  -0.479339  0  -0.023529  -0.030282  0  3.954634  0
C  C227  1  0.35009690  0.59506945  0.43575482  1  -0.468684  0  -0.023351  -0.02904  0  3.953164  0
C  C228  1  0.73284895  0.29222023  0.20853072  1  -0.053598  0  -0.07746  -0.10354  0  3.941477  0
C  C229  1  0.70800221  0.44050777  0.87512320  1  -0.045469  0  -0.077456  -0.104141  0  3.941865  0
C  C230  1  0.55929338  0.26722771  0.54187947  1  -0.067102  0  -0.077643  -0.103714  0  3.94164  0
C  C231  1  0.29222187  0.73285137  0.79146922  1  -0.053638  0  -0.077482  -0.10362  0  3.941421  0
C  C232  1  0.44050762  0.70800092  0.12487628  1  -0.045447  0  -0.077421  -0.104155  0  3.941833  0
C  C233  1  0.26722685  0.55929397  0.45812187  1  -0.066931  0  -0.07762  -0.103711  0  3.941631  0
C  C234  1  0.75479112  0.27193198  0.15072378  1  -0.500302  0  -0.023567  -0.035401  0  3.980475  0
C  C235  1  0.72829888  0.48274971  0.81731125  1  -0.478275  0  -0.023587  -0.035574  0  3.981782  0
C  C236  1  0.51705061  0.24528988  0.48407900  1  -0.451165  0  -0.023499  -0.036168  0  3.981658  0
C  C237  1  0.27193197  0.75479190  0.84927427  1  -0.500412  0  -0.023588  -0.03538  0  3.980439  0
C  C238  1  0.48275060  0.72829986  0.18268776  1  -0.478663  0  -0.023587  -0.035586  0  3.98186  0
C  C239  1  0.24529011  0.51705233  0.51592045  1  -0.450453  0  -0.023542  -0.036222  0  3.98165  0
C  C240  1  0.69430008  0.20403248  0.11542140  1  -0.067377  0  -0.077361  -0.132985  0  3.926884  0
C  C241  1  0.79620812  0.49019806  0.78202890  1  -0.061451  0  -0.077393  -0.133215  0  3.927581  0
C  C242  1  0.50951767  0.30574043  0.44881681  1  -0.026796  0  -0.077313  -0.132112  0  3.92571  0
C  C243  1  0.20403097  0.69430127  0.88457664  1  -0.067699  0  -0.077343  -0.13297  0  3.92691  0
C  C244  1  0.49019894  0.79620907  0.21796964  1  -0.061067  0  -0.077391  -0.133222  0  3.92771  0
C  C245  1  0.30574055  0.50951738  0.55118311  1  -0.027504  0  -0.077317  -0.132065  0  3.925617  0
C  C246  1  0.63120831  0.36836658  0.29698351  1  -0.524129  0  -0.026523  -0.043154  0  3.961557  0
C  C247  1  0.63186802  0.26278031  0.96360285  1  -0.469828  0  -0.026321  -0.043026  0  3.961798  0
C  C248  1  0.73710012  0.36880960  0.63025439  1  -0.534492  0  -0.02684  -0.04275  0  3.959798  0
C  C249  1  0.36836705  0.63120768  0.70301690  1  -0.524264  0  -0.026572  -0.043154  0  3.961493  0
C  C250  1  0.26278146  0.63186748  0.03639614  1  -0.469745  0  -0.026311  -0.042973  0  3.961736  0
C  C251  1  0.36880935  0.73710000  0.36974650  1  -0.534442  0  -0.026911  -0.04286  0  3.959717  0
C  C252  1  0.55983474  0.37184802  0.27813001  1  -0.083396  0  -0.088002  -0.099869  0  3.944336  0
C  C253  1  0.62837554  0.18792515  0.94475019  1  -0.066482  0  -0.088207  -0.099421  0  3.94405  0
C  C254  1  0.81199072  0.44018705  0.61137515  1  -0.001849  0  -0.08801  -0.099437  0  3.944105  0
C  C255  1  0.37184905  0.55983470  0.72186992  1  -0.083372  0  -0.08797  -0.099857  0  3.94436  0
C  C256  1  0.18792477  0.62837538  0.05524927  1  -0.066468  0  -0.088172  -0.09932  0  3.943976  0
C  C257  1  0.44018683  0.81199058  0.38862575  1  -0.001856  0  -0.087993  -0.099426  0  3.944109  0
C  C258  1  0.56680173  0.44909679  0.26322557  1  -0.048144  0  -0.089714  -0.07201  0  3.988489  0
C  C259  1  0.55112282  0.11762258  0.92979404  1  -0.104993  0  -0.089588  -0.072694  0  3.987864  0
C  C260  1  0.88228985  0.43323397  0.59655234  1  -0.121879  0  -0.089657  -0.07215  0  3.988398  0
C  C261  1  0.44909950  0.56680335  0.73677390  1  -0.048128  0  -0.089742  -0.072105  0  3.988622  0
C  C262  1  0.11762243  0.55112354  0.07020540  1  -0.104967  0  -0.089602  -0.072789  0  3.987936  0
C  C263  1  0.43323481  0.88229076  0.40344714  1  -0.121938  0  -0.089634  -0.072114  0  3.988434  0
C  C264  1  0.64417149  0.52297207  0.26824047  1  0.00123  0  -0.091645  -0.079315  0  4.005632  0
C  C265  1  0.47725207  0.12109421  0.93480616  1  -0.06906  0  -0.091464  -0.078206  0  4.003699  0
C  C266  1  0.87880300  0.35589231  0.60167853  1  -0.053094  0  -0.091303  -0.078465  0  4.004922  0
C  C267  1  0.52297504  0.64417393  0.73175853  1  0.001329  0  -0.091621  -0.079368  0  4.00555  0
C  C268  1  0.12109462  0.47725338  0.06519328  1  -0.069205  0  -0.091412  -0.078109  0  4.00366  0
C  C269  1  0.35589225  0.87880366  0.39832142  1  -0.053068  0  -0.091309  -0.078484  0  4.004812  0
C  C270  1  0.71535957  0.51970333  0.28705571  1  -0.119519  0  -0.093076  -0.086138  0  4.021574  0
C  C271  1  0.48054698  0.19556154  0.95359561  1  -0.023478  0  -0.09288  -0.085773  0  4.021752  0
C  C272  1  0.80429993  0.28469641  0.62046059  1  -0.043856  0  -0.09321  -0.086633  0  4.022275  0
C  C273  1  0.51970423  0.71536182  0.71294377  1  -0.119546  0  -0.093101  -0.086027  0  4.02154  0
C  C274  1  0.19555989  0.48054497  0.04640336  1  -0.023318  0  -0.092911  -0.085777  0  4.021752  0
C  C275  1  0.28469586  0.80429889  0.37953888  1  -0.043676  0  -0.093201  -0.086581  0  4.022247  0
C  C276  1  0.70928381  0.44272106  0.30103534  1  -0.058418  0  -0.089028  -0.101302  0  3.990303  0
C  C277  1  0.55752499  0.26649136  0.96757773  1  -0.045625  0  -0.089063  -0.101164  0  3.991903  0
C  C278  1  0.73336733  0.29075744  0.63433307  1  -0.06062  0  -0.088813  -0.100895  0  3.991121  0
C  C279  1  0.44272232  0.70928455  0.69896507  1  -0.058446  0  -0.089042  -0.101376  0  3.990389  0
C  C280  1  0.26649020  0.55752466  0.03242173  1  -0.045678  0  -0.089073  -0.101228  0  3.99197  0
C  C281  1  0.29075566  0.73336759  0.36566782  1  -0.060818  0  -0.088717  -0.100763  0  3.990949  0
C  C282  1  0.70565350  0.28081965  0.35855464  1  -0.538005  0  -0.030161  -0.058555  0  3.991342  0
C  C283  1  0.71942238  0.42493855  0.02506628  1  -0.537629  0  -0.03052  -0.058694  0  3.990429  0
C  C284  1  0.57513254  0.29436205  0.69187786  1  -0.494173  0  -0.030106  -0.058796  0  3.991579  0
C  C285  1  0.28082057  0.70565333  0.64144341  1  -0.537987  0  -0.030119  -0.058418  0  3.991266  0
C  C286  1  0.42493906  0.71942175  0.97493367  1  -0.537972  0  -0.0305  -0.058648  0  3.990261  0
C  C287  1  0.29436483  0.57513490  0.30812348  1  -0.494358  0  -0.030103  -0.058833  0  3.991493  0
C  C288  1  0.72244241  0.32911552  0.41372670  1  -0.065401  0  -0.088603  -0.100835  0  3.97394  0
C  C289  1  0.67094290  0.39338053  0.08014484  1  -0.021592  0  -0.088307  -0.100748  0  3.974087  0
C  C290  1  0.60670566  0.27759694  0.74702336  1  0.012994  0  -0.088906  -0.100427  0  3.973254  0
C  C291  1  0.32911569  0.72244084  0.58627371  1  -0.065463  0  -0.088621  -0.100918  0  3.974073  0
C  C292  1  0.39338190  0.67094252  0.91985557  1  -0.021318  0  -0.088281  -0.100681  0  3.974046  0
C  C293  1  0.27759829  0.60670720  0.25297704  1  0.013064  0  -0.088951  -0.100474  0  3.973164  0
C  C294  1  0.78214545  0.33458654  0.45687117  1  -0.089238  0  -0.089454  -0.070468  0  3.984695  0
C  C295  1  0.66538139  0.44757146  0.12325561  1  -0.055045  0  -0.089613  -0.070254  0  3.984744  0
C  C296  1  0.55252037  0.21792329  0.79019586  1  -0.153503  0  -0.089318  -0.070944  0  3.984525  0
C  C297  1  0.33458620  0.78214649  0.54312924  1  -0.089009  0  -0.089455  -0.070448  0  3.98474  0
C  C298  1  0.44757285  0.66538102  0.87674480  1  -0.055087  0  -0.089623  -0.070318  0  3.984867  0
C  C299  1  0.21792384  0.55252052  0.20980407  1  -0.153619  0  -0.089255  -0.070779  0  3.984546  0
C  C300  1  0.82597286  0.29186467  0.44596199  1  -0.014048  0  -0.091622  -0.082479  0  4.002125  0
C  C301  1  0.70820185  0.53415782  0.11237208  1  0.008531  0  -0.091723  -0.082555  0  4.002684  0
C  C302  1  0.46592435  0.17405700  0.77931053  1  -0.015611  0  -0.091949  -0.082426  0  4.002232  0
C  C303  1  0.29186633  0.82597402  0.55403843  1  -0.014199  0  -0.091652  -0.082488  0  4.001991  0
C  C304  1  0.53415816  0.70820039  0.88762834  1  0.008375  0  -0.091765  -0.082541  0  4.002707  0
C  C305  1  0.17405864  0.46592563  0.22069127  1  -0.015522  0  -0.092082  -0.082667  0  4.002605  0
C  C306  1  0.80968984  0.24347421  0.39146145  1  -0.078268  0  -0.095593  -0.086669  0  4.026782  0
C  C307  1  0.75675940  0.56632761  0.05793569  1  -0.139164  0  -0.095651  -0.086539  0  4.025694  0
C  C308  1  0.43374937  0.19029235  0.72481055  1  0.020352  0  -0.095834  -0.087106  0  4.025752  0
C  C309  1  0.24347258  0.80968773  0.60854085  1  -0.078573  0  -0.095512  -0.086566  0  4.026672  0
C  C310  1  0.56632851  0.75675847  0.94206616  1  -0.139389  0  -0.095623  -0.086605  0  4.025622  0
C  C311  1  0.19029230  0.43375022  0.27518889  1  0.020284  0  -0.095803  -0.087083  0  4.025999  0
C  C312  1  0.74970367  0.23763781  0.34811314  1  -0.036051  0  -0.096832  -0.119654  0  4.012674  0
C  C313  1  0.76269396  0.51221084  0.01463478  1  -0.080288  0  -0.096699  -0.119142  0  4.012031  0
C  C314  1  0.48785268  0.25026777  0.68145068  1  -0.152879  0  -0.096296  -0.118246  0  4.010487  0
C  C315  1  0.23763730  0.74970269  0.65188585  1  -0.035676  0  -0.096871  -0.119767  0  4.01277  0
C  C316  1  0.51221288  0.76269294  0.98536611  1  -0.080075  0  -0.096716  -0.119114  0  4.011951  0
C  C317  1  0.25026861  0.48785375  0.31855018  1  -0.152769  0  -0.096261  -0.118173  0  4.010463  0
C  C318  1  0.91079698  0.27363346  0.14177396  1  -0.443028  0  -0.023304  -0.036059  0  3.936663  0
C  C319  1  0.72639523  0.63696576  0.80846003  1  -0.487982  0  -0.023722  -0.036431  0  3.936478  0
C  C320  1  0.36289837  0.08920803  0.47511974  1  -0.505121  0  -0.023769  -0.036741  0  3.938318  0
C  C321  1  0.27363184  0.91079923  0.85822551  1  -0.442894  0  -0.023331  -0.036176  0  3.936853  0
C  C322  1  0.63696650  0.72639540  0.19153946  1  -0.488067  0  -0.023757  -0.036424  0  3.936444  0
C  C323  1  0.08920876  0.36290068  0.52488063  1  -0.505441  0  -0.02375  -0.03658  0  3.938233  0
C  C324  1  0.90177095  0.24352811  0.20386146  1  -0.069508  0  -0.086498  -0.092641  0  3.980457  0
C  C325  1  0.75643110  0.65810441  0.87055678  1  -0.009252  0  -0.086531  -0.092095  0  3.978198  0
C  C326  1  0.34183103  0.09820397  0.53721759  1  -0.102546  0  -0.086112  -0.091841  0  3.978901  0
C  C327  1  0.24352741  0.90177225  0.79613801  1  -0.069632  0  -0.086506  -0.092637  0  3.980536  0
C  C328  1  0.65810484  0.75643156  0.12944271  1  -0.009157  0  -0.086531  -0.092184  0  3.978257  0
C  C329  1  0.09820416  0.34183279  0.46278373  1  -0.102313  0  -0.086153  -0.091989  0  3.978859  0
C  C330  1  0.94714482  0.20571114  0.22436775  1  -0.043967  0  -0.095106  -0.09267  0  4.032268  0
C  C331  1  0.79411908  0.74133606  0.89102092  1  -0.09027  0  -0.095618  -0.093409  0  4.031209  0
C  C332  1  0.25861661  0.05275472  0.55770888  1  -0.021622  0  -0.095369  -0.091874  0  4.032063  0
C  C333  1  0.20570986  0.94714554  0.77563267  1  -0.043927  0  -0.095149  -0.092705  0  4.032401  0
C  C334  1  0.74133698  0.79412125  0.10897810  1  -0.090329  0  -0.095599  -0.093335  0  4.031148  0
C  C335  1  0.05275693  0.25861855  0.44229149  1  -0.021731  0  -0.09541  -0.091943  0  4.031997  0
C  C336  1  0.00175565  0.19726895  0.18298871  1  -0.036344  0  -0.090236  -0.082949  0  4.026365  0
C  C337  1  0.80250202  0.80433254  0.84959970  1  -0.113035  0  -0.089598  -0.081647  0  4.024953  0
C  C338  1  0.19554519  0.99816726  0.51631523  1  -0.018279  0  -0.089814  -0.083013  0  4.026643  0
C  C339  1  0.19726740  0.00175638  0.81701165  1  -0.036406  0  -0.090227  -0.083017  0  4.02632  0
C  C340  1  0.80433241  0.80250313  0.15040075  1  -0.112987  0  -0.089619  -0.081693  0  4.025103  0
C  C341  1  0.99817037  0.19554714  0.48368661  1  -0.017885  0  -0.089828  -0.083015  0  4.026677  0
C  C342  1  0.00949618  0.22528560  0.12075784  1  -0.032314  0  -0.090574  -0.081286  0  4.007984  0
C  C343  1  0.77453397  0.78400193  0.78735962  1  -0.058122  0  -0.090948  -0.082172  0  4.007716  0
C  C344  1  0.21579384  0.99044266  0.45408506  1  -0.023285  0  -0.091007  -0.082007  0  4.007588  0
C  C345  1  0.22528502  0.00949598  0.87924300  1  -0.032292  0  -0.090523  -0.081101  0  4.007891  0
C  C346  1  0.78400204  0.77453596  0.21263988  1  -0.058123  0  -0.090991  -0.082199  0  4.007629  0
C  C347  1  0.99044608  0.21579548  0.54591583  1  -0.023537  0  -0.090968  -0.0819  0  4.007717  0
C  C348  1  0.96374117  0.26270524  0.10001172  1  -0.072268  0  -0.082987  -0.085632  0  3.968124  0
C  C349  1  0.73725013  0.70081336  0.76665957  1  0.002859  0  -0.082487  -0.08562  0  3.969151  0
C  C350  1  0.29899208  0.03625547  0.43334866  1  -0.083938  0  -0.082662  -0.085552  0  3.968615  0
C  C351  1  0.26270432  0.96374160  0.89998823  1  -0.072263  0  -0.083062  -0.085749  0  3.968325  0
C  C352  1  0.70081243  0.73724986  0.23333992  1  0.002947  0  -0.082432  -0.085585  0  3.969011  0
C  C353  1  0.03625745  0.29899315  0.56665218  1  -0.0838  0  -0.082704  -0.085727  0  3.968613  0
C  C354  1  0.90941640  0.42811639  0.15931501  1  -0.507783  0  -0.026538  -0.044702  0  3.958853  0
C  C355  1  0.57201297  0.48103451  0.82585806  1  -0.523297  0  -0.026929  -0.045749  0  3.958484  0
C  C356  1  0.51876239  0.09068357  0.49256501  1  -0.44622  0  -0.026828  -0.046055  0  3.958708  0
C  C357  1  0.42811721  0.90941853  0.84068589  1  -0.508059  0  -0.026545  -0.044664  0  3.958859  0
C  C358  1  0.48103294  0.57201217  0.17414188  1  -0.523091  0  -0.026916  -0.045883  0  3.958628  0
C  C359  1  0.09068208  0.51876243  0.50743443  1  -0.446143  0  -0.026794  -0.046034  0  3.958638  0
C  C360  1  0.96852715  0.44575926  0.20732187  1  -0.052425  0  -0.090271  -0.103284  0  3.983848  0
C  C361  1  0.55438929  0.52254200  0.87382491  1  -0.054977  0  -0.090355  -0.102891  0  3.984566  0
C  C362  1  0.47727339  0.03153081  0.54055503  1  -0.089948  0  -0.089947  -0.102109  0  3.982814  0
C  C363  1  0.44575929  0.96852784  0.79267904  1  -0.050393  0  -0.090261  -0.103316  0  3.983826  0
C  C364  1  0.52254054  0.55438734  0.12617456  1  -0.054822  0  -0.090328  -0.1028  0  3.984416  0
C  C365  1  0.03152983  0.47727397  0.45944488  1  -0.08993  0  -0.089998  -0.102187  0  3.982932  0
C  C366  1  0.00401430  0.52215770  0.23974520  1  -0.033136  0  -0.092841  -0.08101  0  4.018316  0
C  C367  1  0.47797047  0.48170154  0.90620190  1  -0.099613  0  -0.092994  -0.081699  0  4.018553  0
C  C368  1  0.51814792  0.99597144  0.57292513  1  -0.066155  0  -0.092501  -0.080725  0  4.017733  0
C  C369  1  0.52215814  0.00401441  0.76025612  1  -0.035268  0  -0.092835  -0.081006  0  4.018157  0
C  C370  1  0.48170085  0.47796995  0.09379709  1  -0.099735  0  -0.093013  -0.081719  0  4.018406  0
C  C371  1  0.99597054  0.51814703  0.42707437  1  -0.066162  0  -0.092479  -0.080663  0  4.017697  0
C  C372  1  0.98054603  0.58155349  0.22485221  1  -0.069553  0  -0.091093  -0.085477  0  4.019185  0
C  C373  1  0.41848334  0.39885303  0.89129623  1  -0.004698  0  -0.091043  -0.085115  0  4.018276  0
C  C374  1  0.60097957  0.01936163  0.55798866  1  -0.037107  0  -0.091388  -0.085229  0  4.01882  0
C  C375  1  0.58155313  0.98054504  0.77515012  1  -0.069468  0  -0.091062  -0.085395  0  4.019106  0
C  C376  1  0.39885153  0.41848143  0.10870417  1  -0.005144  0  -0.091005  -0.085059  0  4.018169  0
C  C377  1  0.01936146  0.60098030  0.44201125  1  -0.037087  0  -0.091383  -0.085241  0  4.018798  0
C  C378  1  0.92193079  0.56468057  0.17686797  1  -0.055727  0  -0.091628  -0.077975  0  4.012493  0
C  C379  1  0.43529371  0.35708488  0.84332272  1  -0.047039  0  -0.092204  -0.07883  0  4.012903  0
C  C380  1  0.64271720  0.07796545  0.50999069  1  -0.039241  0  -0.092043  -0.079183  0  4.013544  0
C  C381  1  0.56468123  0.92193210  0.82313483  1  -0.055389  0  -0.091672  -0.078218  0  4.012438  0
C  C382  1  0.35708360  0.43529264  0.15667768  1  -0.047059  0  -0.092269  -0.078949  0  4.013045  0
C  C383  1  0.07796531  0.64271793  0.49000875  1  -0.039273  0  -0.092003  -0.079118  0  4.013497  0
C  C384  1  0.88715249  0.48889362  0.14400357  1  -0.026211  0  -0.088872  -0.100414  0  3.976171  0
C  C385  1  0.51112484  0.39801033  0.81051060  1  -0.051676  0  -0.088335  -0.09946  0  3.975994  0
C  C386  1  0.60176701  0.11285161  0.47720227  1  -0.091877  0  -0.088653  -0.099308  0  3.975248  0
C  C387  1  0.48889222  0.88715365  0.85599970  1  -0.026141  0  -0.088825  -0.10029  0  3.976068  0
C  C388  1  0.39800913  0.51112258  0.18948886  1  -0.051659  0  -0.088297  -0.099394  0  3.976061  0
C  C389  1  0.11285151  0.60176778  0.52279717  1  -0.091881  0  -0.08866  -0.099282  0  3.975148  0
N  N390  1  0.42600105  0.94920788  0.03057641  1  -1.21571  0  -0.360695  -0.187699  0  3.660863  0
N  N391  1  0.05094326  0.47680878  0.69711658  1  -1.218454  0  -0.359912  -0.186935  0  3.661241  0
N  N392  1  0.52309191  0.57398981  0.36384217  1  -1.230099  0  -0.360521  -0.187546  0  3.659576  0
N  N393  1  0.94920888  0.42599958  0.96942308  1  -1.215779  0  -0.360784  -0.187834  0  3.660917  0
N  N394  1  0.47681013  0.05094114  0.30288380  1  -1.219104  0  -0.359898  -0.186772  0  3.661057  0
N  N395  1  0.57398816  0.52309039  0.63615777  1  -1.230125  0  -0.360541  -0.187565  0  3.659453  0
Cl  Cl396  1  0.38277913  0.16956858  0.30012108  1  -0.708719  0  -0.431639  -0.562807  0  1.123008  0
Cl  Cl397  1  0.83055891  0.21327043  0.96681527  1  -0.710192  0  -0.4314  -0.562547  0  1.122852  0
Cl  Cl398  1  0.78675091  0.61719736  0.63334700  1  -0.70967  0  -0.431807  -0.562792  0  1.122563  0
Cl  Cl399  1  0.16957072  0.38277904  0.69987930  1  -0.708765  0  -0.431639  -0.562791  0  1.123026  0
Cl  Cl400  1  0.21326946  0.83055809  0.03318561  1  -0.710165  0  -0.431392  -0.562529  0  1.122881  0
Cl  Cl401  1  0.61719825  0.78675310  0.36665248  1  -0.709452  0  -0.431809  -0.562797  0  1.122549  0
