# generated using pymatgen
data_ZnH21C30N3O4
_symmetry_space_group_name_H-M   'P 1'
_cell_length_a   13.94514856
_cell_length_b   20.03178513
_cell_length_c   30.78617907
_cell_angle_alpha   100.01222304
_cell_angle_beta   90.00001833
_cell_angle_gamma   90.00018346
_symmetry_Int_Tables_number   1
_chemical_formula_structural   ZnH21C30N3O4
_chemical_formula_sum   'Zn8 H168 C240 N24 O32'
_cell_volume   8469.03059599
_cell_formula_units_Z   8
loop_
 _symmetry_equiv_pos_site_id
 _symmetry_equiv_pos_as_xyz
  1  'x, y, z'
loop_
 _atom_site_type_symbol
 _atom_site_label
 _atom_site_symmetry_multiplicity
 _atom_site_fract_x
 _atom_site_fract_y
 _atom_site_fract_z
 _atom_site_occupancy
 _atom_site_pbe_bader_charge
 _atom_site_pbe_bader_spin_density
 _atom_site_pbe_cm5_charge
 _atom_site_pbe_ddec_charge
 _atom_site_pbe_ddec_spin_density
 _atom_site_pbe_ddec_sum_bond_order
 _atom_site_pbe_magmom
Zn  Zn0  1  0.39935910  0.25979206  0.74695462  1  1.245343  0  0.691343  0.74666  0  2.376727  0
Zn  Zn1  1  0.89936520  0.24021334  0.75304097  1  1.245687  0  0.691411  0.746795  0  2.376844  0
Zn  Zn2  1  0.60063433  0.74020915  0.25304243  1  1.245791  0  0.691354  0.746678  0  2.376764  0
Zn  Zn3  1  0.10063898  0.75978888  0.24695553  1  1.245405  0  0.691342  0.746742  0  2.376709  0
Zn  Zn4  1  0.47151684  0.86731622  0.95164426  1  1.245504  0  0.692444  0.754485  0  2.402886  0
Zn  Zn5  1  0.97152303  0.63268836  0.54835664  1  1.245481  0  0.692504  0.75457  0  2.402902  0
Zn  Zn6  1  0.52847945  0.13268604  0.04835647  1  1.245537  0  0.692499  0.754527  0  2.402831  0
Zn  Zn7  1  0.02847972  0.36731489  0.45164258  1  1.245551  0  0.692466  0.754489  0  2.402862  0
H  H8  1  0.54889435  0.28909346  0.81575841  1  0.16114  0  0.119609  0.101104  0  1.042434  0
H  H9  1  0.04889945  0.21090762  0.68424152  1  0.161083  0  0.119547  0.100975  0  1.042496  0
H  H10  1  0.45110051  0.71090574  0.18423971  1  0.16112  0  0.119596  0.101062  0  1.042456  0
H  H11  1  0.95110330  0.78909260  0.31575802  1  0.161092  0  0.119556  0.101031  0  1.042485  0
H  H12  1  0.59390952  0.38247025  0.87626857  1  0.068319  0  0.107083  0.112069  0  1.011491  0
H  H13  1  0.09392061  0.11752842  0.62373435  1  0.067503  0  0.107059  0.112027  0  1.01152  0
H  H14  1  0.40608534  0.61752844  0.12373047  1  0.067765  0  0.107061  0.112037  0  1.011518  0
H  H15  1  0.90608286  0.88247232  0.37626621  1  0.067636  0  0.107079  0.112105  0  1.011476  0
H  H16  1  0.33189891  0.48373635  0.84952556  1  0.048848  0  0.107212  0.112057  0  1.00483  0
H  H17  1  0.83190965  0.01626184  0.65047508  1  0.049438  0  0.107229  0.112134  0  1.004848  0
H  H18  1  0.66809882  0.51626537  0.15047219  1  0.0493  0  0.107234  0.112132  0  1.004829  0
H  H19  1  0.16809668  0.98373636  0.34952554  1  0.048934  0  0.107243  0.112168  0  1.00485  0
H  H20  1  0.30465838  0.39015049  0.78680382  1  0.115892  0  0.121842  0.096899  0  0.983416  0
H  H21  1  0.80466744  0.10984561  0.71319626  1  0.115632  0  0.12183  0.096847  0  0.983383  0
H  H22  1  0.69534150  0.60985071  0.21319193  1  0.115312  0  0.121878  0.096969  0  0.983355  0
H  H23  1  0.19533961  0.89015209  0.28680495  1  0.115927  0  0.121859  0.096947  0  0.983432  0
H  H24  1  0.58198797  0.43831080  0.94016248  1  0.064751  0  0.100529  0.099412  0  1.009833  0
H  H25  1  0.08200377  0.06168478  0.55983751  1  0.064794  0  0.100574  0.099395  0  1.009686  0
H  H26  1  0.41800116  0.56168840  0.05983629  1  0.064727  0  0.100567  0.099416  0  1.009799  0
H  H27  1  0.91800472  0.93830986  0.44016076  1  0.064698  0  0.100555  0.099366  0  1.0099  0
H  H28  1  0.61764540  0.52856946  0.00126726  1  0.091581  0  0.104314  0.114167  0  1.01566  0
H  H29  1  0.11765192  0.97142508  0.49873194  1  0.091586  0  0.104311  0.114095  0  1.01565  0
H  H30  1  0.38234587  0.47142770  0.99872934  1  0.091525  0  0.104329  0.114132  0  1.015475  0
H  H31  1  0.88235154  0.02856805  0.50126746  1  0.09165  0  0.104329  0.114152  0  1.015658  0
H  H32  1  0.43720767  0.66520722  0.94388972  1  0.106165  0  0.10183  0.119658  0  1.028196  0
H  H33  1  0.93720546  0.83479221  0.55610996  1  0.106112  0  0.101814  0.119637  0  1.02825  0
H  H34  1  0.56279293  0.33479146  0.05610672  1  0.106172  0  0.101819  0.119654  0  1.028114  0
H  H35  1  0.06279657  0.16520499  0.44389152  1  0.106216  0  0.101834  0.119676  0  1.028134  0
H  H36  1  0.40048499  0.57362744  0.88211376  1  0.029666  0  0.095741  0.089183  0  1.035862  0
H  H37  1  0.90048898  0.92637342  0.61788542  1  0.029729  0  0.095728  0.089179  0  1.035993  0
H  H38  1  0.59951489  0.42637326  0.11788258  1  0.029834  0  0.095789  0.089255  0  1.035907  0
H  H39  1  0.09951448  0.07362579  0.38211400  1  0.02969  0  0.095746  0.089204  0  1.035813  0
H  H40  1  0.72422743  0.59841074  0.00633628  1  0.069646  0  0.101156  0.110098  0  1.023713  0
H  H41  1  0.22423004  0.90158202  0.49366307  1  0.069723  0  0.101089  0.11004  0  1.023799  0
H  H42  1  0.27576814  0.40158846  0.99366250  1  0.069685  0  0.101056  0.109982  0  1.023887  0
H  H43  1  0.77577414  0.09841012  0.50633850  1  0.069737  0  0.101106  0.110086  0  1.023822  0
H  H44  1  0.85010857  0.62419266  0.06132518  1  0.044463  0  0.099828  0.096913  0  1.010509  0
H  H45  1  0.35010887  0.87580343  0.43867358  1  0.044574  0  0.099835  0.096913  0  1.010387  0
H  H46  1  0.14988845  0.37580806  0.93867311  1  0.044417  0  0.099784  0.096898  0  1.010505  0
H  H47  1  0.64989460  0.12419274  0.56132649  1  0.044383  0  0.099813  0.096891  0  1.010443  0
H  H48  1  0.67130196  0.77814407  0.13683763  1  0.105716  0  0.104475  0.105476  0  1.029743  0
H  H49  1  0.17130795  0.72184403  0.36316445  1  0.105539  0  0.104465  0.105486  0  1.029703  0
H  H50  1  0.32869218  0.22185161  0.86316335  1  0.105679  0  0.10448  0.105529  0  1.029667  0
H  H51  1  0.82870340  0.27814306  0.63684015  1  0.105576  0  0.104459  0.105452  0  1.029783  0
H  H52  1  0.54273673  0.74992941  0.08280451  1  0.075506  0  0.105246  0.114797  0  1.01886  0
H  H53  1  0.04273931  0.75005789  0.41719746  1  0.076032  0  0.105242  0.114857  0  1.018871  0
H  H54  1  0.45725884  0.25006678  0.91719685  1  0.075605  0  0.105229  0.114813  0  1.018825  0
H  H55  1  0.95726559  0.24992767  0.58280534  1  0.07549  0  0.105246  0.114821  0  1.018848  0
H  H56  1  0.96544200  0.67639381  0.09415937  1  0.070487  0  0.107125  0.112844  0  1.004747  0
H  H57  1  0.46543988  0.82360256  0.40584139  1  0.070559  0  0.107085  0.112755  0  1.004762  0
H  H58  1  0.03456003  0.32361146  0.90583812  1  0.070458  0  0.107103  0.112805  0  1.004681  0
H  H59  1  0.53456286  0.17639412  0.59415938  1  0.070531  0  0.107089  0.112751  0  1.004797  0
H  H60  1  0.08910936  0.70230599  0.15233439  1  0.092489  0  0.118463  0.089411  0  0.995224  0
H  H61  1  0.58911005  0.79769204  0.34766714  1  0.092494  0  0.118464  0.089451  0  0.995202  0
H  H62  1  0.91089124  0.29770181  0.84766305  1  0.092492  0  0.118476  0.089456  0  0.995194  0
H  H63  1  0.41089270  0.20230970  0.65233256  1  0.09253  0  0.118475  0.08947  0  0.995262  0
H  H64  1  0.88772495  0.78680870  0.24484673  1  0.093359  0  0.123423  0.095626  0  0.986734  0
H  H65  1  0.38772581  0.71318547  0.25515442  1  0.093368  0  0.123404  0.095598  0  0.986698  0
H  H66  1  0.11227493  0.21318797  0.75515209  1  0.093253  0  0.123404  0.095612  0  0.986742  0
H  H67  1  0.61227120  0.28681527  0.74484679  1  0.093318  0  0.123405  0.095595  0  0.986646  0
H  H68  1  0.75699986  0.76838907  0.19122576  1  0.115176  0  0.106546  0.122189  0  1.063605  0
H  H69  1  0.25700299  0.73160529  0.30877442  1  0.115158  0  0.106532  0.122157  0  1.063641  0
H  H70  1  0.24299859  0.23160558  0.80877446  1  0.115164  0  0.106536  0.122152  0  1.063646  0
H  H71  1  0.74299832  0.26839191  0.69122738  1  0.115014  0  0.106529  0.122146  0  1.063675  0
H  H72  1  0.61932935  0.77848899  0.98824853  1  0.111678  0  0.112279  0.081748  0  1.023881  0
H  H73  1  0.11933438  0.72151578  0.51175234  1  0.111486  0  0.112264  0.081771  0  1.02387  0
H  H74  1  0.38066408  0.22151733  0.01175395  1  0.111528  0  0.112266  0.081785  0  1.023916  0
H  H75  1  0.88066837  0.27848191  0.48824692  1  0.111437  0  0.11228  0.081797  0  1.023706  0
H  H76  1  0.75902639  0.79832126  0.03734234  1  0.07317  0  0.101348  0.107357  0  1.043402  0
H  H77  1  0.25902806  0.70168019  0.46265667  1  0.073106  0  0.101346  0.107408  0  1.043436  0
H  H78  1  0.24096991  0.20168504  0.96265786  1  0.073034  0  0.101366  0.107363  0  1.043463  0
H  H79  1  0.74097183  0.29831700  0.53734318  1  0.073027  0  0.101369  0.107409  0  1.043408  0
H  H80  1  0.74071713  0.01085758  0.02561657  1  0.134953  0  0.113951  0.126653  0  1.005099  0
H  H81  1  0.24071511  0.48914591  0.47438572  1  0.134966  0  0.113985  0.126703  0  1.004923  0
H  H82  1  0.25928848  0.98914515  0.97437967  1  0.135224  0  0.113852  0.126558  0  1.005021  0
H  H83  1  0.75928262  0.51085027  0.52561500  1  0.135078  0  0.113888  0.126575  0  1.005072  0
H  H84  1  0.60225075  0.98131143  0.97700517  1  0.132453  0  0.120448  0.10036  0  1.003245  0
H  H85  1  0.10225414  0.51869635  0.52299765  1  0.132794  0  0.120479  0.100418  0  1.0033  0
H  H86  1  0.39774913  0.01869536  0.02299281  1  0.132593  0  0.120454  0.100398  0  1.003381  0
H  H87  1  0.89774287  0.48130236  0.47700302  1  0.132581  0  0.120438  0.100328  0  1.003526  0
H  H88  1  0.87917719  0.81884741  0.07328774  1  0.04904  0  0.096088  0.091849  0  1.032191  0
H  H89  1  0.37917444  0.68115281  0.42671245  1  0.049075  0  0.096123  0.091859  0  1.032235  0
H  H90  1  0.12082556  0.18115684  0.92670899  1  0.048929  0  0.096097  0.091839  0  1.032262  0
H  H91  1  0.62082186  0.31884591  0.57328919  1  0.049011  0  0.096092  0.09186  0  1.032257  0
H  H92  1  0.99134819  0.84653956  0.13481745  1  0.069521  0  0.098245  0.105934  0  1.031928  0
H  H93  1  0.49134598  0.65346142  0.36518122  1  0.069618  0  0.098223  0.105926  0  1.031902  0
H  H94  1  0.00865241  0.15346419  0.86517988  1  0.069432  0  0.098301  0.106133  0  1.031775  0
H  H95  1  0.50864816  0.34653830  0.63481858  1  0.069441  0  0.098283  0.105977  0  1.031925  0
H  H96  1  0.94111027  0.05962342  0.13712958  1  0.078407  0  0.105753  0.114472  0  1.000962  0
H  H97  1  0.44110723  0.44037745  0.36286823  1  0.078431  0  0.105779  0.114461  0  1.000978  0
H  H98  1  0.05889319  0.94038184  0.86286661  1  0.078549  0  0.105807  0.114501  0  1.001123  0
H  H99  1  0.55889552  0.55962277  0.63713131  1  0.078402  0  0.105774  0.114467  0  1.001034  0
H  H100  1  0.82566502  0.03259821  0.07775833  1  0.066161  0  0.105809  0.114572  0  1.016045  0
H  H101  1  0.32566430  0.46740139  0.42224094  1  0.066213  0  0.105849  0.114603  0  1.01601  0
H  H102  1  0.17433988  0.96740654  0.92223813  1  0.066428  0  0.105823  0.114565  0  1.016037  0
H  H103  1  0.67433988  0.53259580  0.57775988  1  0.066301  0  0.105904  0.114675  0  1.015974  0
H  H104  1  0.17071192  0.99983298  0.23459211  1  0.091221  0  0.107655  0.123321  0  0.99608  0
H  H105  1  0.67071335  0.50016880  0.26541017  1  0.091204  0  0.107662  0.123349  0  0.996013  0
H  H106  1  0.82928796  0.00017379  0.76540295  1  0.091077  0  0.107643  0.123265  0  0.996066  0
H  H107  1  0.32928725  0.49983195  0.73459234  1  0.091177  0  0.107663  0.123305  0  0.996111  0
H  H108  1  0.17062668  0.09077255  0.29934265  1  0.020899  0  0.098362  0.091481  0  1.016041  0
H  H109  1  0.67063495  0.40922572  0.20066133  1  0.02065  0  0.098375  0.091533  0  1.015976  0
H  H110  1  0.82936603  0.90923070  0.70065559  1  0.020684  0  0.098365  0.0915  0  1.016005  0
H  H111  1  0.32936923  0.59076747  0.79934491  1  0.020782  0  0.098397  0.091547  0  1.015853  0
H  H112  1  0.88276406  0.14530927  0.26716514  1  0.058737  0  0.102199  0.098836  0  1.005048  0
H  H113  1  0.38277057  0.35469046  0.23283351  1  0.058814  0  0.102161  0.098783  0  1.005171  0
H  H114  1  0.11722578  0.85469347  0.73283337  1  0.058935  0  0.1022  0.098825  0  1.005042  0
H  H115  1  0.61723433  0.64530473  0.76716937  1  0.058786  0  0.102198  0.098829  0  1.005051  0
H  H116  1  0.88300693  0.05495331  0.20319459  1  0.087873  0  0.105654  0.116462  0  1.019938  0
H  H117  1  0.38300529  0.44504792  0.29680228  1  0.087988  0  0.105646  0.116446  0  1.019915  0
H  H118  1  0.11698865  0.94505144  0.79680187  1  0.088154  0  0.10554  0.11626  0  1.0201  0
H  H119  1  0.61699244  0.55495281  0.70319829  1  0.088044  0  0.105598  0.116366  0  1.02001  0
H  H120  1  0.18196420  0.19196664  0.33308608  1  0.057908  0  0.109164  0.114573  0  1.000398  0
H  H121  1  0.68197127  0.30803012  0.16691611  1  0.057789  0  0.109162  0.114544  0  1.000349  0
H  H122  1  0.81802851  0.80803006  0.66691632  1  0.057776  0  0.109156  0.114531  0  1.000391  0
H  H123  1  0.31803291  0.69196507  0.83308807  1  0.057893  0  0.109184  0.114624  0  1.000358  0
H  H124  1  0.17522159  0.28538120  0.39737648  1  0.142793  0  0.125533  0.102272  0  0.975457  0
H  H125  1  0.67522460  0.21461754  0.10262301  1  0.142746  0  0.125542  0.102252  0  0.975335  0
H  H126  1  0.82477399  0.71461193  0.60262325  1  0.142916  0  0.125578  0.102261  0  0.975358  0
H  H127  1  0.32477528  0.78538420  0.89737670  1  0.142941  0  0.125585  0.102256  0  0.975407  0
H  H128  1  0.87849986  0.28296608  0.39857526  1  0.076797  0  0.11948  0.085466  0  0.987268  0
H  H129  1  0.37850349  0.21703468  0.10142577  1  0.076853  0  0.119498  0.085469  0  0.987337  0
H  H130  1  0.12149644  0.71703568  0.60142639  1  0.07689  0  0.119527  0.085525  0  0.98729  0
H  H131  1  0.62149782  0.78297063  0.89857692  1  0.077182  0  0.119493  0.085451  0  0.987238  0
H  H132  1  0.87145774  0.18935725  0.33477908  1  0.106456  0  0.110973  0.117834  0  0.998162  0
H  H133  1  0.37146185  0.31064147  0.16522335  1  0.106422  0  0.110981  0.117839  0  0.998193  0
H  H134  1  0.12853712  0.81064400  0.66522219  1  0.106434  0  0.110966  0.117847  0  0.998192  0
H  H135  1  0.62854089  0.68935729  0.83478284  1  0.106552  0  0.11097  0.117829  0  0.998126  0
H  H136  1  0.28551910  0.07256399  0.79200585  1  0.056674  0  0.100118  0.105105  0  1.003564  0
H  H137  1  0.78551671  0.42744067  0.70799321  1  0.056729  0  0.100079  0.105045  0  1.003646  0
H  H138  1  0.71448365  0.92743520  0.20799097  1  0.056665  0  0.100108  0.105116  0  1.003568  0
H  H139  1  0.21449106  0.57256619  0.29201225  1  0.056612  0  0.100129  0.105135  0  1.003557  0
H  H140  1  0.27165831  0.98152117  0.83904362  1  0.070448  0  0.095936  0.095555  0  1.034652  0
H  H141  1  0.77166047  0.51848546  0.66095553  1  0.070795  0  0.09595  0.095561  0  1.034697  0
H  H142  1  0.72834013  0.01847749  0.16095087  1  0.070263  0  0.095925  0.095496  0  1.034682  0
H  H143  1  0.22834372  0.48152292  0.33905107  1  0.070205  0  0.095918  0.095544  0  1.034637  0
H  H144  1  0.54048229  0.04395104  0.90027558  1  0.080187  0  0.098445  0.103148  0  1.031207  0
H  H145  1  0.04048344  0.45605558  0.59972431  1  0.079937  0  0.098413  0.103146  0  1.03108  0
H  H146  1  0.45951257  0.95605071  0.09972542  1  0.080106  0  0.098449  0.10309  0  1.031198  0
H  H147  1  0.95950856  0.54394917  0.40027183  1  0.07974  0  0.098472  0.10313  0  1.031248  0
H  H148  1  0.55766551  0.13187386  0.85144680  1  0.12154  0  0.094234  0.095831  0  1.058073  0
H  H149  1  0.05766557  0.36813279  0.64855179  1  0.121654  0  0.094245  0.095872  0  1.058004  0
H  H150  1  0.44233007  0.86812686  0.14855246  1  0.121492  0  0.094222  0.095803  0  1.05816  0
H  H151  1  0.94233216  0.63187195  0.35144336  1  0.121633  0  0.094281  0.095893  0  1.058083  0
H  H152  1  0.29290378  0.42333361  0.63971300  1  0.091684  0  0.105801  0.105474  0  1.0132  0
H  H153  1  0.79291638  0.07667417  0.86029387  1  0.091406  0  0.105812  0.10549  0  1.013206  0
H  H154  1  0.70709037  0.57666159  0.36029215  1  0.091523  0  0.105828  0.10554  0  1.013358  0
H  H155  1  0.20709283  0.92333368  0.13970909  1  0.091233  0  0.105807  0.105482  0  1.013275  0
H  H156  1  0.21546821  0.42041737  0.56613838  1  0.095781  0  0.108646  0.113291  0  0.996821  0
H  H157  1  0.71547012  0.07959223  0.93386576  1  0.096251  0  0.108588  0.113149  0  0.997058  0
H  H158  1  0.78452952  0.57958086  0.43386581  1  0.095877  0  0.108674  0.113315  0  0.996836  0
H  H159  1  0.28452904  0.92041559  0.06613395  1  0.09604  0  0.108651  0.113254  0  0.996821  0
H  H160  1  0.12293019  0.21612349  0.56626738  1  0.070279  0  0.099154  0.094401  0  1.031105  0
H  H161  1  0.62294737  0.28388688  0.93373391  1  0.070119  0  0.099117  0.094332  0  1.031094  0
H  H162  1  0.87705894  0.78387572  0.43373269  1  0.070303  0  0.099144  0.094389  0  1.031008  0
H  H163  1  0.37706111  0.71612095  0.06626809  1  0.070276  0  0.099171  0.094415  0  1.031126  0
H  H164  1  0.20059307  0.21929014  0.64039404  1  0.080219  0  0.102376  0.104363  0  1.018783  0
H  H165  1  0.70061736  0.28071688  0.85960820  1  0.079766  0  0.102353  0.104365  0  1.018512  0
H  H166  1  0.79939032  0.78070554  0.35960760  1  0.079913  0  0.102337  0.104268  0  1.018697  0
H  H167  1  0.29939901  0.71929351  0.14039538  1  0.08008  0  0.102348  0.104363  0  1.018821  0
H  H168  1  0.49929353  0.69824674  0.01196791  1  0.522944  0  0.298199  0.273253  0  1.028157  0
H  H169  1  0.99929434  0.80174770  0.48803361  1  0.522861  0  0.298204  0.273269  0  1.028158  0
H  H170  1  0.50070492  0.30175297  0.98803092  1  0.522844  0  0.298218  0.27331  0  1.028071  0
H  H171  1  0.00070769  0.19824493  0.51196704  1  0.522953  0  0.298188  0.273258  0  1.028192  0
H  H172  1  0.07831402  0.92937883  0.18317667  1  0.532423  0  0.297171  0.27241  0  1.026338  0
H  H173  1  0.57831294  0.57062219  0.31682194  1  0.532116  0  0.297163  0.272427  0  1.026211  0
H  H174  1  0.92168873  0.07062897  0.81682110  1  0.532199  0  0.297154  0.272392  0  1.026502  0
H  H175  1  0.42168479  0.42937751  0.68317656  1  0.532282  0  0.297198  0.272455  0  1.026297  0
C  C176  1  0.50486409  0.33450296  0.82380290  1  0.444023  0  0.042764  0.082906  0  3.949906  0
C  C177  1  0.00487256  0.16549547  0.67619641  1  0.444158  0  0.04294  0.083189  0  3.949624  0
C  C178  1  0.49513220  0.66549471  0.17619441  1  0.444209  0  0.042871  0.083045  0  3.949798  0
C  C179  1  0.99513305  0.83450273  0.32380355  1  0.444113  0  0.0429  0.083132  0  3.949862  0
C  C180  1  0.52754810  0.38620973  0.85821549  1  -0.016007  0  -0.087429  -0.180684  0  3.954914  0
C  C181  1  0.02755559  0.11378876  0.64178481  1  -0.015285  0  -0.08741  -0.180624  0  3.955003  0
C  C182  1  0.47245035  0.61378794  0.14178182  1  -0.015557  0  -0.087452  -0.180663  0  3.955057  0
C  C183  1  0.97244859  0.88620943  0.35821450  1  -0.015286  0  -0.087422  -0.180724  0  3.954861  0
C  C184  1  0.46687767  0.44283991  0.86907124  1  -0.024929  0  0.016619  0.128243  0  3.984387  0
C  C185  1  0.96688643  0.05716063  0.63092902  1  -0.025118  0  0.016636  0.128184  0  3.984316  0
C  C186  1  0.53311934  0.55716283  0.13092629  1  -0.025427  0  0.016677  0.12829  0  3.984068  0
C  C187  1  0.03311919  0.94283858  0.36907073  1  -0.025075  0  0.01667  0.128237  0  3.984151  0
C  C188  1  0.38395420  0.44274346  0.84287903  1  0.051306  0  -0.08566  -0.178714  0  3.94855  0
C  C189  1  0.88396226  0.05725485  0.65712000  1  0.050686  0  -0.085656  -0.178774  0  3.948722  0
C  C190  1  0.61604425  0.55725674  0.15711757  1  0.050753  0  -0.085725  -0.178797  0  3.948653  0
C  C191  1  0.11604264  0.94274385  0.34287970  1  0.051318  0  -0.085743  -0.178941  0  3.948651  0
C  C192  1  0.36681979  0.39007019  0.80820691  1  0.428667  0  0.050508  0.102317  0  3.95604  0
C  C193  1  0.86682884  0.10992858  0.69179249  1  0.429132  0  0.050487  0.102391  0  3.956086  0
C  C194  1  0.63317651  0.60993101  0.19178883  1  0.429679  0  0.050471  0.1022  0  3.956177  0
C  C195  1  0.13317821  0.89006910  0.30820644  1  0.428727  0  0.050458  0.102278  0  3.95606  0
C  C196  1  0.48924688  0.49815015  0.90543228  1  0.022717  0  -0.026379  0.020037  0  4.031226  0
C  C197  1  0.98925680  0.00184789  0.59456706  1  0.022933  0  -0.026464  0.01995  0  4.031471  0
C  C198  1  0.51074870  0.50185003  0.09456303  1  0.022973  0  -0.026369  0.020046  0  4.031176  0
C  C199  1  0.01075097  0.99814929  0.40543279  1  0.02262  0  -0.026331  0.020183  0  4.03103  0
C  C200  1  0.55240216  0.48844710  0.93946405  1  -0.045596  0  -0.090588  -0.106286  0  4.015292  0
C  C201  1  0.05241057  0.01154740  0.56053646  1  -0.045716  0  -0.090602  -0.106224  0  4.015569  0
C  C202  1  0.44759557  0.51154956  0.06053379  1  -0.045645  0  -0.090645  -0.106334  0  4.015746  0
C  C203  1  0.94759577  0.98844724  0.43946279  1  -0.045604  0  -0.090672  -0.106291  0  4.015556  0
C  C204  1  0.57392304  0.54003898  0.97429477  1  -0.059151  0  -0.105373  -0.196655  0  4.006418  0
C  C205  1  0.07392702  0.95995656  0.52570573  1  -0.05901  0  -0.105391  -0.196577  0  4.006625  0
C  C206  1  0.42607397  0.45995972  0.02570492  1  -0.059083  0  -0.105417  -0.19659  0  4.006325  0
C  C207  1  0.92607429  0.04003860  0.47429455  1  -0.059187  0  -0.105376  -0.196614  0  4.006526  0
C  C208  1  0.53302581  0.60495527  0.97653318  1  0.371614  0  0.102814  0.249468  0  4.035862  0
C  C209  1  0.03302878  0.89504018  0.52346763  1  0.371809  0  0.102766  0.249343  0  4.036061  0
C  C210  1  0.46697048  0.39504342  0.02346521  1  0.371541  0  0.102689  0.249215  0  4.036079  0
C  C211  1  0.96697469  0.10495346  0.47653281  1  0.371503  0  0.102834  0.249489  0  4.035984  0
C  C212  1  0.46921797  0.61524752  0.94258383  1  0.014168  0  -0.103298  -0.190997  0  3.972249  0
C  C213  1  0.96922173  0.88474945  0.55741559  1  0.01377  0  -0.103242  -0.19094  0  3.972253  0
C  C214  1  0.53077832  0.38475318  0.05741283  1  0.014263  0  -0.103272  -0.190966  0  3.972167  0
C  C215  1  0.03078173  0.11524419  0.44258420  1  0.014238  0  -0.103324  -0.191051  0  3.972324  0
C  C216  1  0.44808432  0.56308810  0.90818336  1  -0.08208  0  -0.089868  -0.105333  0  4.019602  0
C  C217  1  0.94808907  0.93691135  0.59181697  1  -0.081745  0  -0.089809  -0.105278  0  4.019537  0
C  C218  1  0.55191484  0.43691210  0.09181454  1  -0.081998  0  -0.089869  -0.105354  0  4.019578  0
C  C219  1  0.05191512  0.06308787  0.40818408  1  -0.082024  0  -0.08986  -0.105388  0  4.019488  0
C  C220  1  0.62152308  0.66989529  0.04115976  1  0.348989  0  0.102214  0.242439  0  4.046365  0
C  C221  1  0.12152533  0.83009572  0.45883971  1  0.349215  0  0.102245  0.242564  0  4.046265  0
C  C222  1  0.37847107  0.33010039  0.95884090  1  0.348987  0  0.102119  0.242347  0  4.046319  0
C  C223  1  0.87847957  0.16989439  0.54116099  1  0.349758  0  0.102282  0.242464  0  4.046248  0
C  C224  1  0.71063356  0.63615906  0.03555127  1  -0.073905  0  -0.107499  -0.19775  0  4.001862  0
C  C225  1  0.21063597  0.86383266  0.46444829  1  -0.074263  0  -0.107328  -0.197534  0  4.001684  0
C  C226  1  0.28935915  0.36383814  0.96445021  1  -0.073996  0  -0.107248  -0.197431  0  4.001608  0
C  C227  1  0.78936678  0.13615947  0.53555296  1  -0.074083  0  -0.107418  -0.197703  0  4.002017  0
C  C228  1  0.78292971  0.65228097  0.06656531  1  -0.027828  0  -0.093264  -0.115257  0  4.034016  0
C  C229  1  0.28292773  0.84771143  0.43343434  1  -0.027509  0  -0.093353  -0.115406  0  4.034157  0
C  C230  1  0.21706586  0.34771672  0.93343427  1  -0.027896  0  -0.093257  -0.115319  0  4.033868  0
C  C231  1  0.71707717  0.15228223  0.56656773  1  -0.027938  0  -0.093391  -0.115318  0  4.034274  0
C  C232  1  0.77104327  0.70250179  0.10424785  1  -0.023073  0  -0.027069  0.01467  0  4.040211  0
C  C233  1  0.27104533  0.79749160  0.39575255  1  -0.02334  0  -0.026966  0.014825  0  4.04045  0
C  C234  1  0.22895374  0.29749591  0.89575238  1  -0.022964  0  -0.027077  0.014667  0  4.040067  0
C  C235  1  0.72896028  0.20250106  0.60425070  1  -0.023152  0  -0.027031  0.014682  0  4.040439  0
C  C236  1  0.68258535  0.73713521  0.10907274  1  -0.069757  0  -0.082181  -0.091334  0  3.968686  0
C  C237  1  0.18258940  0.76285342  0.39092940  1  -0.069736  0  -0.082275  -0.091531  0  3.968553  0
C  C238  1  0.31741023  0.26286097  0.89092830  1  -0.069831  0  -0.082197  -0.091428  0  3.968811  0
C  C239  1  0.81741980  0.23713469  0.60907530  1  -0.069654  0  -0.082115  -0.091308  0  3.968613  0
C  C240  1  0.60973058  0.72146949  0.07845397  1  0.033815  0  -0.095736  -0.183309  0  3.96853  0
C  C241  1  0.10973113  0.77852000  0.42154923  1  0.033245  0  -0.095666  -0.183338  0  3.968474  0
C  C242  1  0.39026142  0.27852720  0.92154680  1  0.033814  0  -0.095676  -0.183323  0  3.96862  0
C  C243  1  0.89027305  0.22146761  0.57845575  1  0.033407  0  -0.095766  -0.183286  0  3.968563  0
C  C244  1  0.84758750  0.71811240  0.13709668  1  -0.01549  0  0.013819  0.117629  0  3.993986  0
C  C245  1  0.34758804  0.78188167  0.36290380  1  -0.0153  0  0.013773  0.117484  0  3.994295  0
C  C246  1  0.15241023  0.28188629  0.86290106  1  -0.015545  0  0.013827  0.117631  0  3.99406  0
C  C247  1  0.65241687  0.21811299  0.63709772  1  -0.015219  0  0.013872  0.117648  0  3.993965  0
C  C248  1  0.94398873  0.70045061  0.12717544  1  -0.067744  0  -0.090165  -0.191039  0  3.972706  0
C  C249  1  0.44399006  0.79954369  0.37282444  1  -0.067934  0  -0.090151  -0.190945  0  3.972917  0
C  C250  1  0.05601044  0.29955161  0.87282107  1  -0.067632  0  -0.090197  -0.19109  0  3.972879  0
C  C251  1  0.55601412  0.20045248  0.62717530  1  -0.067917  0  -0.090166  -0.19096  0  3.972713  0
C  C252  1  0.01395494  0.71489703  0.15935515  1  0.491121  0  0.042756  0.086746  0  3.975319  0
C  C253  1  0.51395557  0.78509982  0.34064689  1  0.491022  0  0.04271  0.086552  0  3.975296  0
C  C254  1  0.98604925  0.28510824  0.84064298  1  0.491351  0  0.042779  0.086811  0  3.9756  0
C  C255  1  0.48604503  0.21489990  0.65935292  1  0.491064  0  0.042686  0.086486  0  3.975229  0
C  C256  1  0.90241387  0.76320071  0.21090796  1  0.496353  0  0.055421  0.116803  0  3.922343  0
C  C257  1  0.40242275  0.73679398  0.28909066  1  0.496949  0  0.055516  0.116859  0  3.922154  0
C  C258  1  0.09758458  0.23679899  0.78908990  1  0.496721  0  0.055383  0.116766  0  3.922579  0
C  C259  1  0.59757857  0.26320421  0.71090865  1  0.496949  0  0.055571  0.116923  0  3.922226  0
C  C260  1  0.82871436  0.75141787  0.18040992  1  0.001569  0  -0.08108  -0.172919  0  3.906865  0
C  C261  1  0.32871615  0.74857717  0.31959034  1  0.001085  0  -0.081125  -0.17291  0  3.90663  0
C  C262  1  0.17128480  0.24857981  0.81958868  1  0.001198  0  -0.081092  -0.172839  0  3.907067  0
C  C263  1  0.67128445  0.25141852  0.68041162  1  0.001177  0  -0.08115  -0.172973  0  3.906736  0
C  C264  1  0.64996521  0.82907182  0.99693323  1  0.420849  0  0.033525  0.080306  0  3.989679  0
C  C265  1  0.14997000  0.67093403  0.50306743  1  0.42095  0  0.033626  0.080319  0  3.989482  0
C  C266  1  0.35003109  0.17093600  0.00306681  1  0.421282  0  0.033586  0.080264  0  3.989519  0
C  C267  1  0.85002845  0.32906467  0.49693161  1  0.422003  0  0.033632  0.080338  0  3.989479  0
C  C268  1  0.72875861  0.84100449  0.02451039  1  -0.035634  0  -0.090806  -0.182572  0  3.952448  0
C  C269  1  0.22876439  0.65900145  0.47548943  1  -0.035684  0  -0.090837  -0.182565  0  3.952611  0
C  C270  1  0.27124056  0.15900281  0.97548862  1  -0.036177  0  -0.090814  -0.182456  0  3.952608  0
C  C271  1  0.77123836  0.34099572  0.52450944  1  -0.036198  0  -0.090825  -0.182511  0  3.952671  0
C  C272  1  0.76461353  0.90741969  0.03735554  1  0.031267  0  0.018637  0.127154  0  3.964277  0
C  C273  1  0.26461613  0.59258078  0.46264564  1  0.031896  0  0.01866  0.127099  0  3.96453  0
C  C274  1  0.23538779  0.09258305  0.96264200  1  0.031789  0  0.018585  0.126814  0  3.964606  0
C  C275  1  0.73538447  0.40741540  0.53735508  1  0.03241  0  0.018612  0.126844  0  3.964683  0
C  C276  1  0.71862632  0.95804056  0.01824416  1  -0.051989  0  -0.082592  -0.173266  0  3.923914  0
C  C277  1  0.21863229  0.54196437  0.48175814  1  -0.052536  0  -0.082621  -0.173269  0  3.923957  0
C  C278  1  0.28137141  0.04196571  0.98175213  1  -0.053021  0  -0.08251  -0.173029  0  3.923989  0
C  C279  1  0.78136688  0.45803434  0.51824253  1  -0.052851  0  -0.082505  -0.173022  0  3.923906  0
C  C280  1  0.64010971  0.94226927  0.99086198  1  0.425431  0  0.046578  0.101856  0  3.930887  0
C  C281  1  0.14011255  0.55773709  0.50914166  1  0.425316  0  0.046491  0.101768  0  3.930635  0
C  C282  1  0.35989017  0.05773602  0.00913778  1  0.426024  0  0.046575  0.101763  0  3.930764  0
C  C283  1  0.85988805  0.44226212  0.49085841  1  0.425456  0  0.046485  0.101773  0  3.930721  0
C  C284  1  0.84085801  0.92323611  0.07046047  1  -0.010395  0  -0.021184  0.024915  0  4.009211  0
C  C285  1  0.34085693  0.57676350  0.42953770  1  -0.010631  0  -0.021163  0.025014  0  4.009338  0
C  C286  1  0.15914546  0.07676611  0.92953603  1  -0.010331  0  -0.021156  0.025099  0  4.009086  0
C  C287  1  0.65914223  0.42323368  0.57046215  1  -0.010361  0  -0.021159  0.025119  0  4.009199  0
C  C288  1  0.89122667  0.87202167  0.08711512  1  -0.050778  0  -0.088416  -0.100634  0  3.997508  0
C  C289  1  0.39122582  0.62797705  0.41288394  1  -0.050726  0  -0.088454  -0.100683  0  3.997725  0
C  C290  1  0.10877321  0.12798360  0.91288204  1  -0.050054  0  -0.088465  -0.100627  0  3.997502  0
C  C291  1  0.60877120  0.37202013  0.58711591  1  -0.050772  0  -0.088445  -0.100756  0  3.997535  0
C  C292  1  0.95505680  0.88719871  0.12194531  1  -0.065274  0  -0.102285  -0.1872  0  3.984048  0
C  C293  1  0.45505442  0.61280066  0.37805285  1  -0.065493  0  -0.102231  -0.187149  0  3.984147  0
C  C294  1  0.04494236  0.11280756  0.87805131  1  -0.066132  0  -0.102298  -0.187429  0  3.984119  0
C  C295  1  0.54494188  0.38719856  0.62194755  1  -0.065335  0  -0.102318  -0.187221  0  3.984136  0
C  C296  1  0.97121742  0.95503063  0.14218085  1  0.407431  0  0.103231  0.247005  0  4.052176  0
C  C297  1  0.47121328  0.54497080  0.35781689  1  0.407865  0  0.103163  0.246905  0  4.052386  0
C  C298  1  0.02878389  0.04497411  0.85781430  1  0.407913  0  0.103163  0.246899  0  4.052405  0
C  C299  1  0.52878302  0.45502842  0.64218351  1  0.40779  0  0.103138  0.246892  0  4.052357  0
C  C300  1  0.92628707  0.00668028  0.12384920  1  -0.005598  0  -0.101985  -0.193814  0  3.994018  0
C  C301  1  0.42628213  0.49331802  0.37614768  1  -0.005379  0  -0.101913  -0.193639  0  3.99386  0
C  C302  1  0.07372070  0.99332194  0.87614698  1  -0.005754  0  -0.102036  -0.193846  0  3.994352  0
C  C303  1  0.57371990  0.50667864  0.62385049  1  -0.005599  0  -0.101934  -0.193714  0  3.994039  0
C  C304  1  0.86245063  0.99089139  0.08907170  1  -0.010112  0  -0.081578  -0.093562  0  3.985292  0
C  C305  1  0.36244564  0.50911080  0.41092643  1  -0.009826  0  -0.08173  -0.093771  0  3.985498  0
C  C306  1  0.13755284  0.00911640  0.91092379  1  -0.010265  0  -0.081631  -0.093622  0  3.985912  0
C  C307  1  0.63755352  0.49088790  0.58907391  1  -0.010293  0  -0.081731  -0.09379  0  3.985635  0
C  C308  1  0.02825726  0.02154070  0.21319754  1  0.394042  0  0.10847  0.258555  0  4.029216  0
C  C309  1  0.52825875  0.47845923  0.28680205  1  0.393906  0  0.108477  0.258606  0  4.029333  0
C  C310  1  0.97173903  0.97846508  0.78680000  1  0.394063  0  0.108527  0.258465  0  4.02962  0
C  C311  1  0.47174113  0.52153949  0.71319927  1  0.39398  0  0.108472  0.258469  0  4.029436  0
C  C312  1  0.10840273  0.03280581  0.24169120  1  -0.038653  0  -0.098483  -0.183716  0  3.972412  0
C  C313  1  0.60840486  0.46719483  0.25831076  1  -0.039121  0  -0.098444  -0.183702  0  3.972257  0
C  C314  1  0.89159284  0.96719946  0.75830662  1  -0.038541  0  -0.098555  -0.183698  0  3.97238  0
C  C315  1  0.39159717  0.53280289  0.74169175  1  -0.038592  0  -0.098513  -0.183688  0  3.972392  0
C  C316  1  0.10743407  0.08404925  0.27815984  1  -0.024025  0  -0.092473  -0.113737  0  4.038253  0
C  C317  1  0.60744096  0.41594886  0.22184281  1  -0.023563  0  -0.092457  -0.113687  0  4.037966  0
C  C318  1  0.89255721  0.91595298  0.72183796  1  -0.024332  0  -0.092442  -0.113675  0  4.037906  0
C  C319  1  0.39256681  0.58404635  0.77816267  1  -0.024268  0  -0.092578  -0.113937  0  4.03821  0
C  C320  1  0.02693592  0.12647614  0.28875582  1  0.03988  0  -0.030383  0.013482  0  4.042254  0
C  C321  1  0.52694620  0.37352024  0.21124403  1  0.040003  0  -0.030459  0.013093  0  4.042021  0
C  C322  1  0.97305463  0.87352355  0.71124073  1  0.040321  0  -0.03044  0.013122  0  4.041983  0
C  C323  1  0.47305727  0.62647293  0.78876025  1  0.040358  0  -0.030327  0.013501  0  4.042034  0
C  C324  1  0.94687947  0.11404641  0.26055757  1  -0.088559  0  -0.087584  -0.101939  0  4.017078  0
C  C325  1  0.44688040  0.38595603  0.23944366  1  -0.088483  0  -0.087459  -0.101671  0  4.016967  0
C  C326  1  0.05311252  0.88595938  0.73944193  1  -0.088934  0  -0.087474  -0.10168  0  4.016875  0
C  C327  1  0.55312092  0.61404423  0.76056043  1  -0.088696  0  -0.087585  -0.101897  0  4.016845  0
C  C328  1  0.94699623  0.06335749  0.22361924  1  -0.009598  0  -0.10358  -0.1968  0  3.987228  0
C  C329  1  0.44699813  0.43664238  0.27637879  1  -0.009653  0  -0.103627  -0.196886  0  3.987531  0
C  C330  1  0.05299648  0.93664624  0.77637613  1  -0.009525  0  -0.103523  -0.196663  0  3.987738  0
C  C331  1  0.55300103  0.56335634  0.72362318  1  -0.009545  0  -0.103542  -0.196714  0  3.987584  0
C  C332  1  0.02675034  0.18096708  0.32723689  1  -0.01647  0  0.016544  0.12402  0  3.991685  0
C  C333  1  0.52675388  0.31903083  0.17276476  1  -0.015877  0  0.016554  0.124314  0  3.991411  0
C  C334  1  0.97324381  0.81903364  0.67276270  1  -0.016533  0  0.016615  0.124426  0  3.991425  0
C  C335  1  0.47324959  0.68096540  0.82724084  1  -0.016603  0  0.016559  0.1242  0  3.991583  0
C  C336  1  0.11246911  0.20918117  0.34679355  1  -0.025058  0  -0.085937  -0.183625  0  3.945973  0
C  C337  1  0.61247250  0.29081592  0.15320737  1  -0.025511  0  -0.08597  -0.183754  0  3.945975  0
C  C338  1  0.88752575  0.79081551  0.65320657  1  -0.024868  0  -0.085957  -0.183711  0  3.946023  0
C  C339  1  0.38752881  0.70918079  0.84679601  1  -0.025044  0  -0.085988  -0.183826  0  3.945897  0
C  C340  1  0.10997088  0.26129693  0.38282050  1  0.476085  0  0.051463  0.106231  0  3.947104  0
C  C341  1  0.60997329  0.23870270  0.11718101  1  0.475947  0  0.05141  0.10627  0  3.947165  0
C  C342  1  0.89002757  0.73869976  0.61717994  1  0.475681  0  0.051358  0.106147  0  3.947213  0
C  C343  1  0.39002659  0.76129856  0.88282156  1  0.475817  0  0.051372  0.106238  0  3.946919  0
C  C344  1  0.94422875  0.26082156  0.38307934  1  0.417509  0  0.044333  0.091182  0  3.976936  0
C  C345  1  0.44422892  0.23917731  0.11692052  1  0.417141  0  0.044381  0.09127  0  3.976808  0
C  C346  1  0.05576898  0.73917866  0.61692084  1  0.416817  0  0.044391  0.091292  0  3.976828  0
C  C347  1  0.55576738  0.76082242  0.88308091  1  0.416473  0  0.044391  0.091294  0  3.976881  0
C  C348  1  0.94107268  0.20881303  0.34703620  1  -0.0074  0  -0.085884  -0.184872  0  3.957622  0
C  C349  1  0.44108028  0.29118687  0.15296605  1  -0.007334  0  -0.085937  -0.184979  0  3.957501  0
C  C350  1  0.05891787  0.79118822  0.65296474  1  -0.006941  0  -0.085954  -0.185104  0  3.957607  0
C  C351  1  0.55892318  0.70881188  0.84703950  1  -0.007205  0  -0.0859  -0.184943  0  3.957657  0
C  C352  1  0.43575721  0.16032658  0.79105026  1  1.538391  0  0.18975  0.547892  0  4.232669  0
C  C353  1  0.93575155  0.33967639  0.70894734  1  1.53824  0  0.189655  0.547703  0  4.232925  0
C  C354  1  0.56425056  0.83967211  0.20894780  1  1.537635  0  0.189732  0.547903  0  4.232715  0
C  C355  1  0.06425981  0.66032686  0.29105123  1  1.537418  0  0.189815  0.547981  0  4.232402  0
C  C356  1  0.42306666  0.10680021  0.81886892  1  -0.052974  0  -0.019887  -0.029602  0  3.986448  0
C  C357  1  0.92306123  0.39320476  0.68112923  1  -0.052763  0  -0.019951  -0.029641  0  3.986993  0
C  C358  1  0.57693609  0.89319848  0.18112883  1  -0.053455  0  -0.019902  -0.029586  0  3.986419  0
C  C359  1  0.07694296  0.60680054  0.31887216  1  -0.052824  0  -0.019919  -0.029616  0  3.986848  0
C  C360  1  0.34139443  0.06528461  0.81550530  1  0.00894  0  -0.089414  -0.103096  0  3.982897  0
C  C361  1  0.84139278  0.43471817  0.68449519  1  0.008408  0  -0.08924  -0.10287  0  3.983095  0
C  C362  1  0.65860903  0.93471357  0.18449174  1  0.012575  0  -0.089349  -0.103031  0  3.983  0
C  C363  1  0.15861499  0.56528869  0.31551092  1  0.012328  0  -0.089368  -0.103042  0  3.983155  0
C  C364  1  0.33342740  0.01529847  0.84159721  1  -0.03067  0  -0.089383  -0.097394  0  3.986215  0
C  C365  1  0.83342452  0.48470833  0.65840274  1  -0.030939  0  -0.089468  -0.097558  0  3.986104  0
C  C366  1  0.66657391  0.98469818  0.15839901  1  -0.033793  0  -0.089441  -0.097472  0  3.986238  0
C  C367  1  0.16657751  0.51530258  0.34160284  1  -0.033668  0  -0.089377  -0.097496  0  3.985968  0
C  C368  1  0.40545388  0.00745359  0.87206946  1  -0.039766  0  -0.020445  -0.025863  0  3.957373  0
C  C369  1  0.90545388  0.49255086  0.62793090  1  -0.040052  0  -0.020455  -0.025665  0  3.95724  0
C  C370  1  0.59454529  0.99254257  0.12792898  1  -0.039537  0  -0.020428  -0.025752  0  3.957207  0
C  C371  1  0.09454313  0.50745496  0.37207185  1  -0.039633  0  -0.02041  -0.025571  0  3.957226  0
C  C372  1  0.48566180  0.05033185  0.87617388  1  -0.022543  0  -0.093014  -0.099237  0  3.976039  0
C  C373  1  0.98565730  0.44967330  0.62382819  1  -0.021742  0  -0.093062  -0.099356  0  3.976188  0
C  C374  1  0.51433593  0.94966737  0.12382652  1  -0.022336  0  -0.093072  -0.09924  0  3.976147  0
C  C375  1  0.01433469  0.55033148  0.37617152  1  -0.021747  0  -0.09308  -0.099345  0  3.976237  0
C  C376  1  0.49497266  0.09908931  0.84943250  1  -0.113931  0  -0.089646  -0.099672  0  3.984127  0
C  C377  1  0.99497226  0.40091735  0.65056616  1  -0.113772  0  -0.089589  -0.099682  0  3.984157  0
C  C378  1  0.50502363  0.90091090  0.15056606  1  -0.113356  0  -0.089649  -0.099693  0  3.98424  0
C  C379  1  0.00502618  0.59908893  0.34943176  1  -0.113691  0  -0.089753  -0.099791  0  3.984318  0
C  C380  1  0.39876269  0.95248094  0.89937546  1  1.558919  0  0.196189  0.563898  0  4.23106  0
C  C381  1  0.89876278  0.54752297  0.60062600  1  1.558591  0  0.196214  0.563961  0  4.230797  0
C  C382  1  0.60123146  0.04751521  0.10062103  1  1.559248  0  0.196301  0.564035  0  4.231006  0
C  C383  1  0.10122921  0.45248384  0.39937523  1  1.558029  0  0.196201  0.563739  0  4.231049  0
C  C384  1  0.29993755  0.32192975  0.68799117  1  1.551911  0  0.204247  0.563079  0  4.220953  0
C  C385  1  0.79995488  0.17808106  0.81201312  1  1.552765  0  0.204189  0.562913  0  4.221125  0
C  C386  1  0.70005373  0.67806288  0.31200916  1  1.552085  0  0.204364  0.563418  0  4.220675  0
C  C387  1  0.20005575  0.82193236  0.18799046  1  1.552461  0  0.204146  0.562859  0  4.221336  0
C  C388  1  0.25119585  0.32115893  0.64446414  1  0.018885  0  -0.012649  -0.026428  0  3.96336  0
C  C389  1  0.75122254  0.17885025  0.85553963  1  0.017805  0  -0.012647  -0.02642  0  3.963436  0
C  C390  1  0.74878395  0.67883675  0.35553749  1  0.018077  0  -0.012717  -0.026742  0  3.963053  0
C  C391  1  0.24879455  0.82116115  0.14446405  1  0.018262  0  -0.012594  -0.026436  0  3.963276  0
C  C392  1  0.25590299  0.37789466  0.62349071  1  -0.078954  0  -0.07966  -0.089534  0  3.956985  0
C  C393  1  0.75592226  0.12211353  0.87651490  1  -0.078405  0  -0.079623  -0.089573  0  3.95696  0
C  C394  1  0.74408327  0.62210104  0.37651320  1  -0.078566  0  -0.079688  -0.089571  0  3.956849  0
C  C395  1  0.24408981  0.87789482  0.12348780  1  -0.07841  0  -0.07969  -0.089495  0  3.956992  0
C  C396  1  0.21285072  0.37650169  0.58256365  1  -0.046568  0  -0.079513  -0.087725  0  3.961831  0
C  C397  1  0.71286214  0.12350691  0.91744233  1  -0.047421  0  -0.07943  -0.087462  0  3.961745  0
C  C398  1  0.78714199  0.62349402  0.41744156  1  -0.047136  0  -0.079627  -0.087856  0  3.961752  0
C  C399  1  0.28714491  0.87649890  0.08255976  1  -0.046867  0  -0.079563  -0.087718  0  3.961762  0
C  C400  1  0.16408380  0.31838555  0.56189774  1  0.009264  0  -0.013945  -0.026532  0  3.967343  0
C  C401  1  0.66409765  0.18162646  0.93810601  1  0.009751  0  -0.013866  -0.026546  0  3.967012  0
C  C402  1  0.83590819  0.68161165  0.43810406  1  0.009579  0  -0.013806  -0.026321  0  3.967084  0
C  C403  1  0.33590940  0.81838442  0.06189664  1  0.009381  0  -0.013836  -0.026522  0  3.967305  0
C  C404  1  0.16025152  0.26137851  0.58265337  1  -0.079168  0  -0.090413  -0.108705  0  4.001547  0
C  C405  1  0.66027064  0.23863146  0.91734950  1  -0.079034  0  -0.0905  -0.108728  0  4.001616  0
C  C406  1  0.83973617  0.73861818  0.41734740  1  -0.079113  0  -0.09048  -0.108808  0  4.001757  0
C  C407  1  0.33974358  0.76137690  0.08265449  1  -0.07915  0  -0.09041  -0.108621  0  4.001541  0
C  C408  1  0.20326291  0.26281906  0.62357720  1  -0.049416  0  -0.086459  -0.099914  0  3.989247  0
C  C409  1  0.70328199  0.23718698  0.87642817  1  -0.048621  0  -0.086414  -0.099849  0  3.989113  0
C  C410  1  0.79672335  0.73717918  0.37642763  1  -0.048504  0  -0.08633  -0.099556  0  3.989162  0
C  C411  1  0.29673366  0.76281785  0.12357707  1  -0.049326  0  -0.086455  -0.099934  0  3.989233  0
C  C412  1  0.11345972  0.31796990  0.51891506  1  1.565343  0  0.203978  0.567815  0  4.209751  0
C  C413  1  0.61346572  0.18203996  0.98108747  1  1.565679  0  0.204137  0.568183  0  4.209235  0
C  C414  1  0.88653800  0.68202476  0.48108614  1  1.565765  0  0.204011  0.567767  0  4.209662  0
C  C415  1  0.38653846  0.81796536  0.01891522  1  1.565527  0  0.203989  0.567866  0  4.209612  0
N  N416  1  0.42596424  0.33618501  0.79847339  1  -1.267953  0  -0.336459  -0.239405  0  3.580845  0
N  N417  1  0.92597068  0.16381493  0.70152713  1  -1.268148  0  -0.336544  -0.23957  0  3.580582  0
N  N418  1  0.57403492  0.66381672  0.20152468  1  -1.268044  0  -0.336509  -0.239446  0  3.580729  0
N  N419  1  0.07403422  0.83618379  0.29847387  1  -1.268106  0  -0.33649  -0.239476  0  3.580821  0
N  N420  1  0.54688848  0.65817499  0.01115842  1  -1.287193  0  -0.403224  -0.346076  0  3.601149  0
N  N421  1  0.04688866  0.84181838  0.48884227  1  -1.287154  0  -0.403277  -0.346109  0  3.600821  0
N  N422  1  0.45310781  0.34182219  0.98884078  1  -1.287164  0  -0.403195  -0.345981  0  3.600926  0
N  N423  1  0.95311409  0.15817325  0.51115924  1  -1.287168  0  -0.403259  -0.346154  0  3.601169  0
N  N424  1  0.99413604  0.74544756  0.20096435  1  -1.261161  0  -0.336193  -0.239067  0  3.597751  0
N  N425  1  0.49413497  0.75454787  0.29903598  1  -1.26125  0  -0.336132  -0.238753  0  3.597584  0
N  N426  1  0.00586599  0.25455568  0.79903259  1  -1.261398  0  -0.336124  -0.23907  0  3.598133  0
N  N427  1  0.50586563  0.24545388  0.70096405  1  -1.261165  0  -0.336171  -0.238781  0  3.597536  0
N  N428  1  0.60437455  0.87875068  0.98056250  1  -1.245714  0  -0.342172  -0.253247  0  3.579504  0
N  N429  1  0.10437913  0.62125457  0.51943874  1  -1.245791  0  -0.342178  -0.253292  0  3.578959  0
N  N430  1  0.39562174  0.12125512  0.01943764  1  -1.245656  0  -0.34215  -0.253183  0  3.578829  0
N  N431  1  0.89562147  0.37874312  0.48056084  1  -1.246263  0  -0.342173  -0.253242  0  3.578912  0
N  N432  1  0.03224934  0.96811909  0.17819416  1  -1.310878  0  -0.400723  -0.34063  0  3.587032  0
N  N433  1  0.53224665  0.53188235  0.32180612  1  -1.311363  0  -0.400702  -0.340646  0  3.586974  0
N  N434  1  0.96775054  0.03188821  0.82180388  1  -1.311234  0  -0.400648  -0.34039  0  3.587479  0
N  N435  1  0.46774965  0.46811838  0.67819412  1  -1.31134  0  -0.400629  -0.340441  0  3.587158  0
N  N436  1  0.02705178  0.28724144  0.40108808  1  -1.245127  0  -0.33644  -0.238254  0  3.598063  0
N  N437  1  0.52705479  0.21275848  0.09891216  1  -1.244727  0  -0.336436  -0.238312  0  3.598069  0
N  N438  1  0.97294308  0.71275930  0.59891249  1  -1.244743  0  -0.336484  -0.23827  0  3.598161  0
N  N439  1  0.47294653  0.78724378  0.90108922  1  -1.244581  0  -0.336435  -0.238253  0  3.598079  0
O  O440  1  0.35125731  0.37184363  0.70433344  1  -1.193228  0  -0.318781  -0.570012  0  2.228524  0
O  O441  1  0.85127440  0.12816525  0.79566739  1  -1.193544  0  -0.318889  -0.570096  0  2.228515  0
O  O442  1  0.64875046  0.62814693  0.29566211  1  -1.193143  0  -0.318852  -0.570111  0  2.228678  0
O  O443  1  0.14873839  0.87184308  0.20433303  1  -1.193503  0  -0.318755  -0.569884  0  2.228825  0
O  O444  1  0.28950370  0.26882754  0.70608293  1  -1.163783  0  -0.33207  -0.540471  0  2.273219  0
O  O445  1  0.78951481  0.23117917  0.79391831  1  -1.16427  0  -0.331972  -0.540335  0  2.273225  0
O  O446  1  0.71048614  0.73116813  0.29391773  1  -1.164216  0  -0.332097  -0.540627  0  2.272902  0
O  O447  1  0.21049368  0.76883019  0.20608352  1  -1.163591  0  -0.332047  -0.540416  0  2.273123  0
O  O448  1  0.12063868  0.37181747  0.50145327  1  -1.158678  0  -0.323198  -0.529616  0  2.284082  0
O  O449  1  0.62063728  0.12818883  0.99854627  1  -1.158834  0  -0.323245  -0.529806  0  2.28391  0
O  O450  1  0.87935976  0.62818074  0.49854799  1  -1.158812  0  -0.323196  -0.52964  0  2.284206  0
O  O451  1  0.37936404  0.87181646  0.00145479  1  -1.158859  0  -0.323195  -0.529649  0  2.283993  0
O  O452  1  0.06492731  0.26690339  0.50175689  1  -1.205338  0  -0.322602  -0.578201  0  2.247542  0
O  O453  1  0.56494001  0.23310738  0.99824670  1  -1.205533  0  -0.322674  -0.578336  0  2.247404  0
O  O454  1  0.93507544  0.73309380  0.49824328  1  -1.205739  0  -0.322628  -0.578185  0  2.247375  0
O  O455  1  0.43506776  0.76689845  0.00175637  1  -1.205434  0  -0.322618  -0.578205  0  2.247456  0
O  O456  1  0.35928405  0.17842934  0.77156199  1  -1.167946  0  -0.341908  -0.556286  0  2.280545  0
O  O457  1  0.85928191  0.32157293  0.72843389  1  -1.167777  0  -0.34187  -0.556202  0  2.280698  0
O  O458  1  0.64072013  0.82157238  0.22843478  1  -1.167945  0  -0.341892  -0.556282  0  2.280733  0
O  O459  1  0.14072586  0.67842524  0.27156282  1  -1.167539  0  -0.341931  -0.556296  0  2.280816  0
O  O460  1  0.51638029  0.18703801  0.78828038  1  -1.181986  0  -0.326275  -0.552474  0  2.156274  0
O  O461  1  0.01637871  0.31296702  0.71171706  1  -1.182412  0  -0.326272  -0.552436  0  2.15619  0
O  O462  1  0.48362389  0.81295916  0.21171785  1  -1.181586  0  -0.326286  -0.552524  0  2.156092  0
O  O463  1  0.98362978  0.68704079  0.28828168  1  -1.182048  0  -0.326317  -0.552594  0  2.155786  0
O  O464  1  0.32927032  0.91230644  0.89566667  1  -1.169188  0  -0.33597  -0.571859  0  2.110673  0
O  O465  1  0.82926702  0.58769882  0.60433461  1  -1.168812  0  -0.336012  -0.571941  0  2.110406  0
O  O466  1  0.67073386  0.08768819  0.10433128  1  -1.169631  0  -0.33611  -0.572077  0  2.110358  0
O  O467  1  0.17072282  0.41230546  0.39566570  1  -1.168965  0  -0.335993  -0.571863  0  2.110625  0
O  O468  1  0.47088670  0.95014367  0.92600427  1  -1.175522  0  -0.345938  -0.57253  0  2.345599  0
O  O469  1  0.97088750  0.54986244  0.57399842  1  -1.175391  0  -0.345873  -0.572563  0  2.345712  0
O  O470  1  0.52911390  0.04985656  0.07399656  1  -1.175799  0  -0.345896  -0.572439  0  2.345973  0
O  O471  1  0.02910449  0.45014287  0.42600427  1  -1.175327  0  -0.345866  -0.572397  0  2.345563  0
