# generated using pymatgen
data_Zn2H16C24N8O5
_symmetry_space_group_name_H-M   'P 1'
_cell_length_a   9.89731626
_cell_length_b   18.86523453
_cell_length_c   32.85001964
_cell_angle_alpha   89.99999866
_cell_angle_beta   90.00019646
_cell_angle_gamma   89.99984078
_symmetry_Int_Tables_number   1
_chemical_formula_structural   Zn2H16C24N8O5
_chemical_formula_sum   'Zn16 H128 C192 N64 O40'
_cell_volume   6133.59773802
_cell_formula_units_Z   8
loop_
 _symmetry_equiv_pos_site_id
 _symmetry_equiv_pos_as_xyz
  1  'x, y, z'
loop_
 _atom_site_type_symbol
 _atom_site_label
 _atom_site_symmetry_multiplicity
 _atom_site_fract_x
 _atom_site_fract_y
 _atom_site_fract_z
 _atom_site_occupancy
 _atom_site_pbe_bader_charge
 _atom_site_pbe_bader_spin_density
 _atom_site_pbe_cm5_charge
 _atom_site_pbe_ddec_charge
 _atom_site_pbe_ddec_spin_density
 _atom_site_pbe_ddec_sum_bond_order
 _atom_site_pbe_magmom
Zn  Zn0  1  0.72463071  0.91436285  0.94132066  1  1.268024  0  0.701788  0.749366  0  2.38342  0
Zn  Zn1  1  0.27536855  0.58563576  0.44131981  1  1.267888  0  0.70178  0.749371  0  2.383431  0
Zn  Zn2  1  0.77537004  0.41436534  0.05867921  1  1.267755  0  0.701793  0.749378  0  2.383437  0
Zn  Zn3  1  0.22463456  0.08563300  0.55868076  1  1.267796  0  0.701723  0.749213  0  2.38361  0
Zn  Zn4  1  0.27537072  0.08563457  0.05868017  1  1.267875  0  0.701753  0.749263  0  2.383537  0
Zn  Zn5  1  0.72462883  0.41436695  0.55868071  1  1.267763  0  0.701745  0.74927  0  2.383563  0
Zn  Zn6  1  0.22463037  0.58563685  0.94132071  1  1.267817  0  0.70178  0.749322  0  2.383466  0
Zn  Zn7  1  0.77537091  0.91436547  0.44132037  1  1.267803  0  0.70174  0.749261  0  2.383576  0
Zn  Zn8  1  0.97024480  0.93584770  0.78070809  1  1.230071  0  0.730924  0.696854  0  2.501856  0
Zn  Zn9  1  0.02975667  0.56415410  0.28070548  1  1.230039  0  0.730937  0.69683  0  2.50189  0
Zn  Zn10  1  0.52975785  0.43584471  0.21929329  1  1.230045  0  0.730907  0.696775  0  2.501983  0
Zn  Zn11  1  0.47024555  0.06415469  0.71929509  1  1.230056  0  0.730945  0.696812  0  2.501926  0
Zn  Zn12  1  0.02975864  0.06415343  0.21929303  1  1.229939  0  0.730962  0.696853  0  2.501947  0
Zn  Zn13  1  0.97024577  0.43584755  0.71929383  1  1.230146  0  0.730942  0.696859  0  2.501886  0
Zn  Zn14  1  0.47024559  0.56415483  0.78070662  1  1.23003  0  0.730929  0.696839  0  2.501903  0
Zn  Zn15  1  0.52975891  0.93584485  0.28070634  1  1.229945  0  0.730941  0.696883  0  2.501924  0
H  H16  1  0.66125813  0.05027716  0.92506311  1  0.589056  0  0.326527  0.401251  0  0.870918  0
H  H17  1  0.33874256  0.44972169  0.42506324  1  0.588952  0  0.326509  0.401241  0  0.870957  0
H  H18  1  0.83874352  0.55028038  0.07493676  1  0.588915  0  0.32653  0.401266  0  0.871044  0
H  H19  1  0.16125762  0.94971878  0.57493702  1  0.58889  0  0.32654  0.401249  0  0.870996  0
H  H20  1  0.33874329  0.94972025  0.07493681  1  0.588919  0  0.326541  0.401295  0  0.871006  0
H  H21  1  0.66125583  0.55028209  0.57493637  1  0.5889  0  0.326585  0.401331  0  0.87092  0
H  H22  1  0.16125689  0.44972287  0.92506315  1  0.588978  0  0.326534  0.401251  0  0.870943  0
H  H23  1  0.83874380  0.05028022  0.42506289  1  0.588915  0  0.326531  0.401267  0  0.871051  0
H  H24  1  0.52323504  0.02706419  0.94607063  1  0.662973  0  0.286862  0.392074  0  0.949559  0
H  H25  1  0.47676589  0.47293678  0.44607030  1  0.662985  0  0.286859  0.392073  0  0.949548  0
H  H26  1  0.97676573  0.52706562  0.05392924  1  0.66295  0  0.286872  0.392085  0  0.94953  0
H  H27  1  0.02323619  0.97293460  0.55392875  1  0.662954  0  0.286904  0.392138  0  0.949462  0
H  H28  1  0.47676537  0.97293481  0.05392928  1  0.662953  0  0.286862  0.392088  0  0.949524  0
H  H29  1  0.52323452  0.52706594  0.55392870  1  0.662871  0  0.286857  0.392071  0  0.949546  0
H  H30  1  0.02323469  0.47293604  0.94607098  1  0.662979  0  0.28685  0.392065  0  0.949566  0
H  H31  1  0.97676524  0.02706546  0.44607117  1  0.66297  0  0.286873  0.39209  0  0.94953  0
H  H32  1  0.92031398  0.83457151  0.00415785  1  0.106691  0  0.120472  0.09483  0  0.978352  0
H  H33  1  0.07969141  0.66542606  0.50415803  1  0.106641  0  0.120479  0.094791  0  0.978386  0
H  H34  1  0.57968517  0.33457477  0.99584141  1  0.10658  0  0.12046  0.094773  0  0.978365  0
H  H35  1  0.42030724  0.16542355  0.49584315  1  0.106678  0  0.120443  0.094797  0  0.978379  0
H  H36  1  0.07969250  0.16542643  0.99584176  1  0.106739  0  0.12047  0.094813  0  0.978343  0
H  H37  1  0.92030496  0.33457453  0.49584279  1  0.10673  0  0.120472  0.094818  0  0.978386  0
H  H38  1  0.42031221  0.66542900  0.00415729  1  0.106732  0  0.120482  0.094836  0  0.978377  0
H  H39  1  0.57969217  0.83457281  0.50415768  1  0.106675  0  0.120474  0.094823  0  0.978358  0
H  H40  1  0.98108037  0.70717045  0.02022332  1  0.092497  0  0.113808  0.124628  0  0.981482  0
H  H41  1  0.01891914  0.79282447  0.52022283  1  0.092472  0  0.113828  0.124715  0  0.98146  0
H  H42  1  0.51891743  0.20717540  0.97977715  1  0.092467  0  0.113831  0.124673  0  0.981456  0
H  H43  1  0.48106975  0.29282345  0.47977835  1  0.092256  0  0.113896  0.124789  0  0.981411  0
H  H44  1  0.01892813  0.29282590  0.97977690  1  0.092212  0  0.113872  0.124758  0  0.98143  0
H  H45  1  0.98107218  0.20717560  0.47977891  1  0.092262  0  0.113888  0.124766  0  0.981396  0
H  H46  1  0.48107592  0.79282944  0.02022184  1  0.092178  0  0.113862  0.124708  0  0.981411  0
H  H47  1  0.51892460  0.70717343  0.52022157  1  0.092565  0  0.113877  0.124739  0  0.981386  0
H  H48  1  0.85743745  0.61072274  0.98337398  1  0.099087  0  0.112815  0.115658  0  0.987235  0
H  H49  1  0.14255724  0.88927375  0.48337360  1  0.099166  0  0.112819  0.115616  0  0.987233  0
H  H50  1  0.64255884  0.11072701  0.01662650  1  0.099198  0  0.112827  0.115596  0  0.987317  0
H  H51  1  0.35742811  0.38927026  0.51662727  1  0.099152  0  0.1128  0.11566  0  0.987286  0
H  H52  1  0.14257004  0.38927308  0.01662594  1  0.099064  0  0.112776  0.115587  0  0.987283  0
H  H53  1  0.85743610  0.11072738  0.51662997  1  0.099266  0  0.112809  0.115664  0  0.987268  0
H  H54  1  0.35743349  0.88927623  0.98337189  1  0.099135  0  0.1128  0.115611  0  0.987336  0
H  H55  1  0.64257130  0.61072609  0.48337295  1  0.099052  0  0.112795  0.115602  0  0.987287  0
H  H56  1  0.68119940  0.64289952  0.93264271  1  0.079607  0  0.10679  0.111516  0  1.040742  0
H  H57  1  0.31879875  0.85709962  0.43264282  1  0.079587  0  0.106778  0.11151  0  1.040628  0
H  H58  1  0.81880076  0.14290247  0.06735685  1  0.079601  0  0.10676  0.11149  0  1.040633  0
H  H59  1  0.18118373  0.35709481  0.56735683  1  0.079622  0  0.106744  0.111434  0  1.040752  0
H  H60  1  0.31880910  0.35709684  0.06735750  1  0.079499  0  0.106789  0.111499  0  1.040817  0
H  H61  1  0.68119156  0.14290468  0.56735952  1  0.079479  0  0.106762  0.111488  0  1.040711  0
H  H62  1  0.18119460  0.85709918  0.93264154  1  0.079489  0  0.106757  0.111447  0  1.040877  0
H  H63  1  0.81881466  0.64290261  0.43264278  1  0.079595  0  0.106755  0.111426  0  1.040799  0
H  H64  1  0.54316164  0.67826096  0.88989959  1  0.080903  0  0.109258  0.114926  0  1.027646  0
H  H65  1  0.45683905  0.82173871  0.38990106  1  0.080908  0  0.109275  0.114971  0  1.027652  0
H  H66  1  0.95684035  0.17826212  0.11009814  1  0.080946  0  0.109263  0.114942  0  1.027654  0
H  H67  1  0.04315877  0.32173250  0.61010194  1  0.081119  0  0.109307  0.114997  0  1.027756  0
H  H68  1  0.45683776  0.32173645  0.11010123  1  0.08098  0  0.109264  0.114887  0  1.027731  0
H  H69  1  0.54315530  0.17826506  0.61010128  1  0.08106  0  0.109283  0.114966  0  1.027773  0
H  H70  1  0.04316208  0.82173900  0.88989903  1  0.080905  0  0.109268  0.114929  0  1.027668  0
H  H71  1  0.95684164  0.67826279  0.38989980  1  0.080986  0  0.109273  0.114907  0  1.027703  0
H  H72  1  0.37252811  0.72819633  0.84240790  1  0.111596  0  0.114509  0.11131  0  1.002619  0
H  H73  1  0.62747103  0.77180494  0.34240864  1  0.11158  0  0.114528  0.111329  0  1.002621  0
H  H74  1  0.12747526  0.22819479  0.15759084  1  0.111599  0  0.114509  0.111321  0  1.002555  0
H  H75  1  0.87252239  0.27179666  0.65759244  1  0.111651  0  0.114513  0.111285  0  1.002645  0
H  H76  1  0.62747230  0.27180268  0.15759383  1  0.111562  0  0.114482  0.111272  0  1.00259  0
H  H77  1  0.37251726  0.22820043  0.65759188  1  0.111587  0  0.114508  0.111288  0  1.002626  0
H  H78  1  0.87252415  0.77180475  0.84240816  1  0.111543  0  0.114505  0.111317  0  1.002568  0
H  H79  1  0.12747398  0.72819758  0.34240747  1  0.111595  0  0.114487  0.111329  0  1.002578  0
H  H80  1  0.35278601  0.85893789  0.83467974  1  0.175386  0  0.11671  0.141364  0  1.019561  0
H  H81  1  0.64721709  0.64106284  0.33468019  1  0.175424  0  0.116715  0.141381  0  1.019499  0
H  H82  1  0.14721970  0.35893791  0.16532052  1  0.175405  0  0.116708  0.14138  0  1.01948  0
H  H83  1  0.85276995  0.14105353  0.66531815  1  0.175269  0  0.11666  0.141333  0  1.019524  0
H  H84  1  0.64721946  0.14106005  0.16532139  1  0.1753  0  0.116726  0.141401  0  1.019598  0
H  H85  1  0.35276615  0.35894411  0.66531789  1  0.175283  0  0.116664  0.141329  0  1.019508  0
H  H86  1  0.85277869  0.64106268  0.83468030  1  0.175394  0  0.116732  0.141398  0  1.019505  0
H  H87  1  0.14722137  0.85893964  0.33467993  1  0.175342  0  0.116687  0.141359  0  1.019512  0
H  H88  1  0.50442615  0.93691349  0.87837781  1  0.084067  0  0.118761  0.093553  0  1.011745  0
H  H89  1  0.49557845  0.56308672  0.37837841  1  0.084075  0  0.118758  0.093573  0  1.011726  0
H  H90  1  0.99557852  0.43691406  0.12162205  1  0.084035  0  0.118786  0.093651  0  1.011656  0
H  H91  1  0.00441467  0.06307951  0.62161881  1  0.083839  0  0.118785  0.093714  0  1.011799  0
H  H92  1  0.49558134  0.06308393  0.12162210  1  0.083988  0  0.118774  0.09361  0  1.011682  0
H  H93  1  0.50440984  0.43691759  0.62161937  1  0.0839  0  0.118765  0.093649  0  1.011716  0
H  H94  1  0.00441684  0.56308601  0.87837908  1  0.084068  0  0.11877  0.093612  0  1.011678  0
H  H95  1  0.99558271  0.93691473  0.37837867  1  0.084032  0  0.118778  0.093594  0  1.011716  0
H  H96  1  0.02584530  0.98706588  0.97225787  1  0.135694  0  0.105026  0.12397  0  1.049031  0
H  H97  1  0.97416037  0.51293432  0.47225714  1  0.135712  0  0.105008  0.12391  0  1.049035  0
H  H98  1  0.47415570  0.48706436  0.02774330  1  0.135765  0  0.105048  0.124001  0  1.049103  0
H  H99  1  0.52584653  0.01293133  0.52774425  1  0.135839  0  0.104995  0.123896  0  1.049074  0
H  H100  1  0.97415309  0.01293419  0.02774143  1  0.135624  0  0.10502  0.123932  0  1.048978  0
H  H101  1  0.02583903  0.48706733  0.52774277  1  0.135589  0  0.105021  0.123944  0  1.049037  0
H  H102  1  0.52584169  0.51293517  0.97225661  1  0.135672  0  0.105003  0.123889  0  1.049066  0
H  H103  1  0.47415388  0.98706609  0.47225779  1  0.135644  0  0.104978  0.123877  0  1.049089  0
H  H104  1  0.36492008  0.04049219  0.89519052  1  0.121816  0  0.103741  0.106745  0  1.019287  0
H  H105  1  0.63508128  0.45950667  0.39518913  1  0.121806  0  0.103772  0.106823  0  1.019261  0
H  H106  1  0.13508024  0.54049199  0.10480944  1  0.12182  0  0.10374  0.106748  0  1.019297  0
H  H107  1  0.86492630  0.95950240  0.60481104  1  0.121651  0  0.103772  0.106826  0  1.019354  0
H  H108  1  0.63507831  0.95950629  0.10481061  1  0.121768  0  0.103779  0.106859  0  1.019268  0
H  H109  1  0.36492418  0.54049181  0.60480926  1  0.121766  0  0.103759  0.106757  0  1.019304  0
H  H110  1  0.86491715  0.45950861  0.89518986  1  0.121867  0  0.103755  0.106738  0  1.019304  0
H  H111  1  0.13507917  0.04049449  0.39518918  1  0.121776  0  0.103736  0.106755  0  1.019238  0
H  H112  1  0.24159792  0.99897281  0.83312687  1  0.123456  0  0.114895  0.13054  0  0.989885  0
H  H113  1  0.75840213  0.50102263  0.33312530  1  0.123357  0  0.114914  0.130581  0  0.98981  0
H  H114  1  0.25839999  0.49897373  0.16687370  1  0.123421  0  0.114918  0.130561  0  0.98979  0
H  H115  1  0.74160686  0.00101984  0.66687548  1  0.123288  0  0.114878  0.130463  0  0.989805  0
H  H116  1  0.75840048  0.00102514  0.16687396  1  0.123408  0  0.114943  0.130599  0  0.989787  0
H  H117  1  0.24160637  0.49897532  0.66687370  1  0.123379  0  0.114944  0.130588  0  0.989737  0
H  H118  1  0.74159739  0.50102793  0.83312621  1  0.123426  0  0.114898  0.130532  0  0.989844  0
H  H119  1  0.25840063  0.99897705  0.33312535  1  0.123352  0  0.114929  0.130565  0  0.989798  0
H  H120  1  0.88486842  0.73357675  0.73980427  1  0.080735  0  0.101467  0.109279  0  1.024833  0
H  H121  1  0.11513359  0.76642611  0.23980387  1  0.080631  0  0.101471  0.109304  0  1.02485  0
H  H122  1  0.61513126  0.23357469  0.26019529  1  0.080777  0  0.101419  0.109259  0  1.024832  0
H  H123  1  0.38487261  0.26642682  0.76019548  1  0.080841  0  0.101424  0.109232  0  1.024832  0
H  H124  1  0.11513906  0.26642437  0.26019716  1  0.080526  0  0.101444  0.109252  0  1.024867  0
H  H125  1  0.88486884  0.23357661  0.76019543  1  0.080743  0  0.101436  0.109253  0  1.024865  0
H  H126  1  0.38487522  0.76642431  0.73980371  1  0.080889  0  0.101444  0.109274  0  1.024817  0
H  H127  1  0.61512780  0.73357431  0.23980169  1  0.080777  0  0.101474  0.109282  0  1.024831  0
H  H128  1  0.85872523  0.60395262  0.72594795  1  0.081384  0  0.1022  0.111761  0  1.038916  0
H  H129  1  0.14127965  0.89605024  0.22594849  1  0.081552  0  0.10216  0.111681  0  1.038942  0
H  H130  1  0.64127816  0.10395052  0.27405161  1  0.081338  0  0.102183  0.111721  0  1.038911  0
H  H131  1  0.35872789  0.39605045  0.77405238  1  0.08134  0  0.10218  0.111702  0  1.038996  0
H  H132  1  0.14128023  0.39604904  0.27405318  1  0.081557  0  0.102157  0.111693  0  1.038926  0
H  H133  1  0.85872480  0.10395194  0.77405234  1  0.081635  0  0.102194  0.111755  0  1.03891  0
H  H134  1  0.35872630  0.89604848  0.72594860  1  0.081396  0  0.102167  0.111714  0  1.03898  0
H  H135  1  0.64127455  0.60395014  0.22594509  1  0.081211  0  0.102159  0.111675  0  1.038949  0
H  H136  1  0.28576596  0.70353463  0.78755005  1  0.098336  0  0.104943  0.111837  0  1.058336  0
H  H137  1  0.71423660  0.79646717  0.28754844  1  0.098288  0  0.104928  0.111802  0  1.058268  0
H  H138  1  0.21423653  0.20353243  0.21244869  1  0.098095  0  0.104922  0.111808  0  1.058239  0
H  H139  1  0.78576882  0.29646856  0.71244929  1  0.098043  0  0.104934  0.11184  0  1.058257  0
H  H140  1  0.71423950  0.29646120  0.21245260  1  0.098412  0  0.104945  0.111845  0  1.058289  0
H  H141  1  0.28576483  0.20353342  0.71244934  1  0.0981  0  0.104931  0.111815  0  1.058262  0
H  H142  1  0.78576894  0.79646764  0.78755183  1  0.098033  0  0.104968  0.111866  0  1.058238  0
H  H143  1  0.21423564  0.70353204  0.28754940  1  0.098275  0  0.104923  0.111774  0  1.058308  0
C  C144  1  0.87030514  0.79008122  0.98914567  1  0.506636  0  0.051335  0.101259  0  3.951332  0
C  C145  1  0.12969870  0.70991633  0.48914589  1  0.506141  0  0.051269  0.10133  0  3.951492  0
C  C146  1  0.62969424  0.29008446  0.01085481  1  0.506157  0  0.051315  0.101305  0  3.951381  0
C  C147  1  0.37029971  0.20991494  0.51085559  1  0.506126  0  0.051244  0.101066  0  3.951572  0
C  C148  1  0.12970033  0.20991619  0.01085485  1  0.506066  0  0.051277  0.101156  0  3.9515  0
C  C149  1  0.87029666  0.29008427  0.51085524  1  0.5061  0  0.051176  0.101102  0  3.951613  0
C  C150  1  0.37030213  0.70991826  0.98914480  1  0.506227  0  0.051244  0.101126  0  3.951479  0
C  C151  1  0.62969969  0.79008300  0.48914462  1  0.506169  0  0.051204  0.101076  0  3.951514  0
C  C152  1  0.90268284  0.71986368  0.99808114  1  -0.011772  0  -0.08169  -0.132145  0  3.967814  0
C  C153  1  0.09731707  0.78013281  0.49808103  1  -0.011659  0  -0.081748  -0.132415  0  3.968167  0
C  C154  1  0.59731590  0.21986749  0.00191964  1  -0.011775  0  -0.08174  -0.132286  0  3.968073  0
C  C155  1  0.40267593  0.28013138  0.50192045  1  -0.011851  0  -0.081788  -0.132236  0  3.967982  0
C  C156  1  0.09732465  0.28013215  0.00191907  1  -0.011871  0  -0.081828  -0.132324  0  3.968003  0
C  C157  1  0.90267426  0.21986884  0.50192010  1  -0.011749  0  -0.081788  -0.132267  0  3.968122  0
C  C158  1  0.40267946  0.78013523  0.99807997  1  -0.011374  0  -0.081707  -0.132157  0  3.96783  0
C  C159  1  0.59732246  0.71986709  0.49808037  1  -0.011812  0  -0.081755  -0.132228  0  3.967903  0
C  C160  1  0.83354291  0.66622644  0.97743607  1  -0.100386  0  -0.062739  -0.017226  0  3.946882  0
C  C161  1  0.16645373  0.83377058  0.47743632  1  -0.100455  0  -0.062704  -0.017038  0  3.946754  0
C  C162  1  0.66645308  0.16623068  0.02256410  1  -0.100351  0  -0.062709  -0.017071  0  3.94687  0
C  C163  1  0.33353393  0.33376766  0.52256515  1  -0.099774  0  -0.062807  -0.017403  0  3.947049  0
C  C164  1  0.16646357  0.33376938  0.02256415  1  -0.099652  0  -0.062735  -0.017254  0  3.946916  0
C  C165  1  0.83353961  0.16623267  0.52256572  1  -0.099941  0  -0.062817  -0.017417  0  3.947061  0
C  C166  1  0.33353824  0.83377309  0.97743489  1  -0.100326  0  -0.06281  -0.017339  0  3.94699  0
C  C167  1  0.66646244  0.66623082  0.47743537  1  -0.100106  0  -0.062756  -0.017281  0  3.946902  0
C  C168  1  0.73528071  0.68437683  0.94891244  1  0.014334  0  -0.076219  -0.151915  0  3.926895  0
C  C169  1  0.26471763  0.81562178  0.44891280  1  0.01445  0  -0.076212  -0.151926  0  3.926777  0
C  C170  1  0.76471721  0.18438040  0.05108682  1  0.014482  0  -0.076163  -0.15182  0  3.926715  0
C  C171  1  0.23526811  0.31561635  0.55108777  1  0.014575  0  -0.076141  -0.151702  0  3.926984  0
C  C172  1  0.26472577  0.31561952  0.05108778  1  0.014493  0  -0.076162  -0.151745  0  3.927002  0
C  C173  1  0.73527066  0.18438306  0.55108863  1  0.014625  0  -0.076121  -0.151653  0  3.926889  0
C  C174  1  0.23527411  0.81562232  0.94891188  1  0.014385  0  -0.076116  -0.151732  0  3.926962  0
C  C175  1  0.76472726  0.68438053  0.44891215  1  0.014447  0  -0.07617  -0.151672  0  3.927026  0
C  C176  1  0.70890666  0.75621799  0.94131882  1  0.516474  0  0.122746  0.167225  0  3.997873  0
C  C177  1  0.29109462  0.74378009  0.44131891  1  0.516523  0  0.122657  0.167084  0  3.997974  0
C  C178  1  0.79109391  0.25622205  0.05868104  1  0.516604  0  0.122626  0.166968  0  3.99795  0
C  C179  1  0.20889654  0.24377311  0.55868166  1  0.51665  0  0.122686  0.166928  0  3.99845  0
C  C180  1  0.29109982  0.24377730  0.05868139  1  0.516502  0  0.12264  0.166991  0  3.998125  0
C  C181  1  0.70889468  0.25622634  0.55868161  1  0.516506  0  0.122679  0.166882  0  3.998473  0
C  C182  1  0.20890145  0.74378014  0.94131887  1  0.51648  0  0.122683  0.167212  0  3.997965  0
C  C183  1  0.79110084  0.75622377  0.44131886  1  0.516517  0  0.122675  0.16694  0  3.998239  0
C  C184  1  0.60812152  0.78128110  0.91117054  1  0.456435  0  0.116426  0.154028  0  3.984877  0
C  C185  1  0.39188244  0.71871804  0.41117134  1  0.456134  0  0.116404  0.15406  0  3.984908  0
C  C186  1  0.89188094  0.28128501  0.08882872  1  0.456149  0  0.116455  0.154192  0  3.984817  0
C  C187  1  0.10810784  0.21871068  0.58882953  1  0.456128  0  0.116443  0.154211  0  3.985081  0
C  C188  1  0.39188293  0.21871472  0.08883028  1  0.456179  0  0.116424  0.154037  0  3.985071  0
C  C189  1  0.60810888  0.28128838  0.58883010  1  0.456174  0  0.11651  0.154367  0  3.985015  0
C  C190  1  0.10811746  0.71871824  0.91117028  1  0.456181  0  0.116435  0.153944  0  3.984965  0
C  C191  1  0.89188348  0.78128673  0.41116946  1  0.456114  0  0.116498  0.154247  0  3.984971  0
C  C192  1  0.53033578  0.73530346  0.88749806  1  0.118999  0  -0.070799  -0.129996  0  3.901024  0
C  C193  1  0.46966590  0.76469674  0.38749924  1  0.118983  0  -0.070848  -0.130102  0  3.901212  0
C  C194  1  0.96966692  0.23530513  0.11249937  1  0.11896  0  -0.07085  -0.1301  0  3.90135  0
C  C195  1  0.03032617  0.26468949  0.61250163  1  0.118614  0  -0.070892  -0.13019  0  3.901561  0
C  C196  1  0.46966666  0.26469395  0.11250154  1  0.119037  0  -0.070898  -0.130142  0  3.90125  0
C  C197  1  0.53032542  0.23530863  0.61250158  1  0.118834  0  -0.070884  -0.130245  0  3.901536  0
C  C198  1  0.03033147  0.76469652  0.88749811  1  0.119011  0  -0.070832  -0.130032  0  3.901093  0
C  C199  1  0.96966819  0.73530686  0.38749859  1  0.119069  0  -0.070892  -0.130152  0  3.901267  0
C  C200  1  0.43642928  0.76330053  0.86033365  1  -0.120781  0  -0.052145  0.002509  0  3.908588  0
C  C201  1  0.56357208  0.73670020  0.36033432  1  -0.120732  0  -0.052154  0.002476  0  3.90868  0
C  C202  1  0.06357390  0.26330068  0.13966448  1  -0.120689  0  -0.052123  0.002529  0  3.90859  0
C  C203  1  0.93642051  0.23669394  0.63966585  1  -0.120478  0  -0.052039  0.002746  0  3.908682  0
C  C204  1  0.56357113  0.23669847  0.13966718  1  -0.120764  0  -0.052062  0.002735  0  3.908445  0
C  C205  1  0.43641722  0.26330517  0.63966499  1  -0.120601  0  -0.052038  0.002747  0  3.908713  0
C  C206  1  0.93642449  0.73669992  0.86033391  1  -0.12079  0  -0.052125  0.002532  0  3.908599  0
C  C207  1  0.06357485  0.76330294  0.36033375  1  -0.120779  0  -0.052071  0.002601  0  3.908571  0
C  C208  1  0.42501486  0.83652624  0.85614491  1  0.060725  0  -0.067733  -0.10825  0  3.899215  0
C  C209  1  0.57498848  0.66347449  0.35614589  1  0.060777  0  -0.0677  -0.108198  0  3.899233  0
C  C210  1  0.07498794  0.33652743  0.14385383  1  0.060853  0  -0.067757  -0.108306  0  3.899169  0
C  C211  1  0.92500349  0.16346772  0.64385215  1  0.060576  0  -0.067711  -0.108266  0  3.899269  0
C  C212  1  0.57498959  0.16347223  0.14385561  1  0.060833  0  -0.067738  -0.108338  0  3.899342  0
C  C213  1  0.42499880  0.33653140  0.64385219  1  0.060479  0  -0.067732  -0.108251  0  3.899149  0
C  C214  1  0.92500742  0.66347475  0.85614608  1  0.060772  0  -0.067707  -0.108178  0  3.899122  0
C  C215  1  0.07499187  0.83652863  0.35614563  1  0.060795  0  -0.067718  -0.108256  0  3.899255  0
C  C216  1  0.50731295  0.87930328  0.88019486  1  0.470195  0  0.05565  0.105626  0  3.919395  0
C  C217  1  0.49269167  0.62069692  0.38019546  1  0.470034  0  0.055649  0.105606  0  3.919464  0
C  C218  1  0.99269101  0.37930492  0.11980379  1  0.470311  0  0.055615  0.105519  0  3.919383  0
C  C219  1  0.00730115  0.12068918  0.61980146  1  0.470629  0  0.055573  0.105336  0  3.919634  0
C  C220  1  0.49269352  0.12069413  0.11980536  1  0.470312  0  0.055617  0.105542  0  3.919414  0
C  C221  1  0.50729864  0.37930897  0.61980202  1  0.470622  0  0.055615  0.105435  0  3.919456  0
C  C222  1  0.00730536  0.62069674  0.88019582  1  0.470041  0  0.055547  0.105392  0  3.919384  0
C  C223  1  0.99269522  0.87930612  0.38019541  1  0.470253  0  0.055583  0.105534  0  3.91952  0
C  C224  1  0.00316813  0.96744727  0.90760158  1  0.318842  0  0.082427  0.108157  0  4.086686  0
C  C225  1  0.99682973  0.53255400  0.40760027  1  0.318512  0  0.082393  0.108159  0  4.086801  0
C  C226  1  0.49683095  0.46744519  0.09239898  1  0.318882  0  0.082392  0.108132  0  4.08681  0
C  C227  1  0.50317505  0.03254997  0.59240082  1  0.318506  0  0.082339  0.107985  0  4.086921  0
C  C228  1  0.99682521  0.03255651  0.09239833  1  0.318575  0  0.082386  0.108238  0  4.08679  0
C  C229  1  0.00317169  0.46744660  0.59239904  1  0.31863  0  0.082386  0.108174  0  4.086688  0
C  C230  1  0.50316744  0.53255594  0.90760032  1  0.318185  0  0.08246  0.108102  0  4.086707  0
C  C231  1  0.49682840  0.96744533  0.40760122  1  0.318632  0  0.082373  0.108092  0  4.08684  0
C  C232  1  0.07252344  0.98979891  0.94238516  1  0.026466  0  -0.088744  -0.167695  0  3.951465  0
C  C233  1  0.92747988  0.51020182  0.44238377  1  0.026541  0  -0.088712  -0.16764  0  3.951458  0
C  C234  1  0.42747755  0.48979800  0.05761540  1  0.026443  0  -0.088722  -0.167684  0  3.951619  0
C  C235  1  0.57252502  0.01019981  0.55761731  1  0.026526  0  -0.08865  -0.16749  0  3.951307  0
C  C236  1  0.92747395  0.01020327  0.05761506  1  0.026559  0  -0.088704  -0.167665  0  3.95137  0
C  C237  1  0.07252256  0.48979931  0.55761523  1  0.026487  0  -0.088682  -0.167622  0  3.951457  0
C  C238  1  0.57251882  0.51020419  0.94238390  1  0.026841  0  -0.088733  -0.167594  0  3.951462  0
C  C239  1  0.42747640  0.98979760  0.44238442  1  0.02645  0  -0.088665  -0.167519  0  3.951584  0
C  C240  1  0.20348369  0.01568742  0.93724034  1  -0.073411  0  -0.029696  -0.055734  0  3.999488  0
C  C241  1  0.79651916  0.48431302  0.43723911  1  -0.073567  0  -0.029657  -0.055541  0  3.999571  0
C  C242  1  0.29651878  0.51568645  0.06276023  1  -0.073642  0  -0.029643  -0.055574  0  3.999724  0
C  C243  1  0.70348425  0.98430899  0.56276166  1  -0.073411  0  -0.029673  -0.055621  0  3.999451  0
C  C244  1  0.79651571  0.98431371  0.06276018  1  -0.073455  0  -0.029636  -0.055533  0  3.999425  0
C  C245  1  0.20348226  0.51568651  0.56275958  1  -0.073658  0  -0.02964  -0.055548  0  3.999664  0
C  C246  1  0.70347962  0.48431573  0.93723968  1  -0.073691  0  -0.029675  -0.055664  0  3.999719  0
C  C247  1  0.29651819  0.01568630  0.43723977  1  -0.073393  0  -0.029696  -0.055732  0  3.999704  0
C  C248  1  0.27863451  0.04143737  0.97421174  1  1.558187  0  0.205249  0.573164  0  4.211845  0
C  C249  1  0.72136674  0.45856519  0.47421074  1  1.558839  0  0.205176  0.573051  0  4.211916  0
C  C250  1  0.22136782  0.54143546  0.02578975  1  1.558818  0  0.2052  0.573114  0  4.211792  0
C  C251  1  0.77863478  0.95856158  0.52578973  1  1.558605  0  0.205222  0.573204  0  4.21171  0
C  C252  1  0.72136388  0.95856163  0.02578909  1  1.55845  0  0.205246  0.573206  0  4.211753  0
C  C253  1  0.27863165  0.54143488  0.52578948  1  1.558801  0  0.205189  0.573083  0  4.211812  0
C  C254  1  0.77863057  0.45856461  0.97421138  1  1.558698  0  0.205252  0.573176  0  4.211731  0
C  C255  1  0.22136664  0.04143636  0.47421170  1  1.55865  0  0.20525  0.573209  0  4.211753  0
C  C256  1  0.26311882  0.01900989  0.89783095  1  -0.081057  0  -0.090905  -0.107575  0  3.988697  0
C  C257  1  0.73688258  0.48098844  0.39782967  1  -0.081061  0  -0.090953  -0.107758  0  3.988751  0
C  C258  1  0.23688161  0.51901007  0.10216901  1  -0.081071  0  -0.090955  -0.107691  0  3.988852  0
C  C259  1  0.76312388  0.98098538  0.60217050  1  -0.081323  0  -0.090925  -0.107792  0  3.988772  0
C  C260  1  0.73687857  0.98099018  0.10216926  1  -0.081084  0  -0.090967  -0.107859  0  3.988822  0
C  C261  1  0.26312087  0.51901004  0.60216842  1  -0.081063  0  -0.090957  -0.107713  0  3.988844  0
C  C262  1  0.76311779  0.48099212  0.89783060  1  -0.081071  0  -0.090923  -0.107588  0  3.988782  0
C  C263  1  0.23688057  0.01901045  0.39783063  1  -0.081047  0  -0.090914  -0.107655  0  3.988671  0
C  C264  1  0.19536940  0.99652071  0.86320293  1  0.009237  0  -0.080861  -0.135613  0  3.949178  0
C  C265  1  0.80462897  0.50347578  0.36320111  1  0.009165  0  -0.080947  -0.135705  0  3.949206  0
C  C266  1  0.30462852  0.49652156  0.13679733  1  0.009236  0  -0.080892  -0.135634  0  3.949065  0
C  C267  1  0.69537697  0.00347253  0.63679906  1  0.009395  0  -0.080958  -0.135571  0  3.949067  0
C  C268  1  0.80462495  0.00347935  0.13679759  1  0.009214  0  -0.080945  -0.135591  0  3.94921  0
C  C269  1  0.19537650  0.49652269  0.63679728  1  0.009229  0  -0.080947  -0.13569  0  3.9491  0
C  C270  1  0.69537089  0.50348062  0.86320258  1  0.009215  0  -0.080872  -0.135643  0  3.949169  0
C  C271  1  0.30462748  0.99652223  0.36320206  1  0.009245  0  -0.080925  -0.135623  0  3.949132  0
C  C272  1  0.06330036  0.97050364  0.86854593  1  0.388643  0  0.096184  0.12758  0  4.050177  0
C  C273  1  0.93669807  0.52949445  0.36854425  1  0.388995  0  0.096224  0.127588  0  4.050167  0
C  C274  1  0.43670072  0.47050324  0.13145494  1  0.38869  0  0.096205  0.127582  0  4.050151  0
C  C275  1  0.56330875  0.02949351  0.63145562  1  0.388998  0  0.0963  0.127625  0  4.050266  0
C  C276  1  0.93669399  0.02949961  0.13145429  1  0.389196  0  0.096183  0.127437  0  4.050341  0
C  C277  1  0.06330437  0.47050350  0.63145536  1  0.388967  0  0.096256  0.12762  0  4.05019  0
C  C278  1  0.56330070  0.52949948  0.86854497  1  0.389193  0  0.096167  0.127664  0  4.050037  0
C  C279  1  0.43669672  0.97050232  0.36854520  1  0.389192  0  0.096257  0.127633  0  4.050181  0
C  C280  1  0.09058445  0.80189029  0.77714935  1  1.564269  0  0.194758  0.562742  0  4.23639  0
C  C281  1  0.90941698  0.69810886  0.27714885  1  1.56428  0  0.194704  0.562563  0  4.236615  0
C  C282  1  0.40941348  0.30188887  0.22285122  1  1.56419  0  0.194702  0.562579  0  4.236452  0
C  C283  1  0.59058693  0.19811106  0.72285040  1  1.564254  0  0.194701  0.562593  0  4.236463  0
C  C284  1  0.90942001  0.19810553  0.22285391  1  1.564176  0  0.194829  0.562702  0  4.236198  0
C  C285  1  0.09058344  0.30188962  0.72285075  1  1.56423  0  0.194746  0.562668  0  4.236496  0
C  C286  1  0.59058693  0.69811120  0.77714961  1  1.564242  0  0.194731  0.562682  0  4.236506  0
C  C287  1  0.40941652  0.80189060  0.27714829  1  1.564245  0  0.194746  0.562702  0  4.236371  0
C  C288  1  0.08555898  0.72516451  0.76494935  1  -0.001176  0  -0.0249  -0.038931  0  3.984667  0
C  C289  1  0.91444231  0.77483676  0.26494795  1  -0.001009  0  -0.024912  -0.038971  0  3.984559  0
C  C290  1  0.41443835  0.22516307  0.23505030  1  -0.001124  0  -0.024874  -0.038863  0  3.984426  0
C  C291  1  0.58556321  0.27483738  0.73505009  1  -0.001044  0  -0.024862  -0.038789  0  3.984369  0
C  C292  1  0.91444346  0.27483397  0.23505086  1  -0.001031  0  -0.024897  -0.038872  0  3.984655  0
C  C293  1  0.08555911  0.22516277  0.73505014  1  -0.001132  0  -0.02487  -0.0389  0  3.984528  0
C  C294  1  0.58556207  0.77483646  0.76495052  1  -0.001098  0  -0.024944  -0.038875  0  3.984518  0
C  C295  1  0.41444225  0.72516216  0.26494860  1  -0.00098  0  -0.024902  -0.038983  0  3.984566  0
C  C296  1  0.96715248  0.69709848  0.74632882  1  0.029112  0  -0.089981  -0.090768  0  3.96592  0
C  C297  1  0.03284961  0.80290385  0.24632833  1  0.029238  0  -0.090082  -0.090915  0  3.965949  0
C  C298  1  0.53284638  0.19709654  0.25367044  1  0.02913  0  -0.089995  -0.090905  0  3.965888  0
C  C299  1  0.46715640  0.30290497  0.75367041  1  0.029122  0  -0.090005  -0.09088  0  3.965874  0
C  C300  1  0.03285097  0.30290105  0.25367231  1  0.029234  0  -0.089949  -0.090682  0  3.965844  0
C  C301  1  0.96715283  0.19709780  0.75367037  1  0.029152  0  -0.089945  -0.090771  0  3.965919  0
C  C302  1  0.46715807  0.80290299  0.74632917  1  0.028992  0  -0.089968  -0.090877  0  3.965954  0
C  C303  1  0.53284503  0.69709669  0.24632676  1  0.029096  0  -0.090034  -0.090899  0  3.966001  0
C  C304  1  0.95291845  0.62572912  0.73765880  1  0.03303  0  -0.095073  -0.157764  0  3.993651  0
C  C305  1  0.04708657  0.87427322  0.23765832  1  0.032683  0  -0.094925  -0.157535  0  3.993427  0
C  C306  1  0.54708179  0.12572716  0.26234076  1  0.033052  0  -0.095  -0.15761  0  3.993481  0
C  C307  1  0.45291907  0.37427435  0.76234011  1  0.032979  0  -0.094979  -0.157582  0  3.993628  0
C  C308  1  0.04708600  0.37427148  0.26234111  1  0.032796  0  -0.095021  -0.157755  0  3.993635  0
C  C309  1  0.95291789  0.12572897  0.76234067  1  0.032735  0  -0.095101  -0.157785  0  3.993618  0
C  C310  1  0.45291963  0.87427185  0.73765976  1  0.032982  0  -0.095032  -0.157658  0  3.993648  0
C  C311  1  0.54708135  0.62572730  0.23765737  1  0.033091  0  -0.09499  -0.157581  0  3.993544  0
C  C312  1  0.06465358  0.58224502  0.74626716  1  0.331429  0  0.089029  0.124435  0  4.064557  0
C  C313  1  0.93534851  0.91775731  0.24626669  1  0.331465  0  0.088978  0.124289  0  4.06463  0
C  C314  1  0.43534652  0.08224196  0.25373249  1  0.331473  0  0.088993  0.124336  0  4.064437  0
C  C315  1  0.56465323  0.41775902  0.75373195  1  0.331434  0  0.089015  0.124362  0  4.064484  0
C  C316  1  0.93534683  0.41775505  0.25373275  1  0.331419  0  0.088986  0.124406  0  4.064609  0
C  C317  1  0.06465191  0.08224434  0.75373292  1  0.331424  0  0.088997  0.124342  0  4.064542  0
C  C318  1  0.56465390  0.91775704  0.74626864  1  0.331956  0  0.089047  0.124447  0  4.064399  0
C  C319  1  0.43534718  0.58224158  0.24626674  1  0.331475  0  0.088994  0.12435  0  4.064526  0
C  C320  1  0.18473969  0.61043541  0.76291531  1  0.405115  0  0.087415  0.123282  0  4.063951  0
C  C321  1  0.81526360  0.88956798  0.26291563  1  0.405289  0  0.087399  0.1233  0  4.064089  0
C  C322  1  0.31526127  0.11043200  0.23708313  1  0.405191  0  0.087486  0.123423  0  4.063894  0
C  C323  1  0.68474031  0.38956898  0.73708362  1  0.405222  0  0.087469  0.123447  0  4.063929  0
C  C324  1  0.81526376  0.38956360  0.23708369  1  0.405268  0  0.087422  0.123208  0  4.064062  0
C  C325  1  0.18473884  0.11043314  0.73708367  1  0.405254  0  0.087495  0.123468  0  4.063964  0
C  C326  1  0.68473914  0.88956701  0.76291770  1  0.404691  0  0.087463  0.123408  0  4.063945  0
C  C327  1  0.31526111  0.61043108  0.26291598  1  0.405201  0  0.087492  0.123405  0  4.063962  0
C  C328  1  0.19529091  0.68194206  0.77364590  1  -0.040063  0  -0.085187  -0.16652  0  3.969702  0
C  C329  1  0.80471048  0.81806026  0.27364469  1  -0.040102  0  -0.085101  -0.166317  0  3.969571  0
C  C330  1  0.30470867  0.18193920  0.22635345  1  -0.039925  0  -0.085182  -0.166483  0  3.969523  0
C  C331  1  0.69529381  0.31806125  0.72635274  1  -0.039915  0  -0.085201  -0.166599  0  3.969648  0
C  C332  1  0.80471153  0.31805588  0.22635614  1  -0.040291  0  -0.085196  -0.166541  0  3.969944  0
C  C333  1  0.19529094  0.18193980  0.72635339  1  -0.039963  0  -0.085215  -0.166529  0  3.969564  0
C  C334  1  0.69529377  0.81805980  0.77364738  1  -0.039941  0  -0.085212  -0.166599  0  3.969667  0
C  C335  1  0.30470964  0.68193881  0.27364504  1  -0.040092  0  -0.085139  -0.166353  0  3.969656  0
N  N336  1  0.59440649  0.85250472  0.90751239  1  -1.285333  0  -0.325475  -0.266719  0  3.565551  0
N  N337  1  0.40559744  0.64749390  0.40751320  1  -1.285022  0  -0.325427  -0.266716  0  3.565521  0
N  N338  1  0.90559560  0.35250860  0.09248625  1  -1.285434  0  -0.325372  -0.266674  0  3.565569  0
N  N339  1  0.09439828  0.14748602  0.59248462  1  -1.285412  0  -0.325381  -0.266624  0  3.565611  0
N  N340  1  0.40559898  0.14749111  0.09248752  1  -1.285353  0  -0.325367  -0.26659  0  3.565682  0
N  N341  1  0.59439691  0.35251147  0.59248579  1  -1.285352  0  -0.325439  -0.26672  0  3.56567  0
N  N342  1  0.09439976  0.64749464  0.90751366  1  -1.284975  0  -0.325354  -0.266538  0  3.565577  0
N  N343  1  0.90560012  0.85251033  0.40751285  1  -1.285319  0  -0.325382  -0.266684  0  3.565713  0
N  N344  1  0.77649062  0.80752714  0.96145492  1  -1.233423  0  -0.318073  -0.276898  0  3.523342  0
N  N345  1  0.22351493  0.69247041  0.46145493  1  -1.233104  0  -0.317933  -0.276732  0  3.523158  0
N  N346  1  0.72351069  0.30753129  0.03854494  1  -1.233111  0  -0.317999  -0.276751  0  3.523198  0
N  N347  1  0.27648458  0.19246546  0.53854594  1  -1.233295  0  -0.317875  -0.276476  0  3.523226  0
N  N348  1  0.22351485  0.19246922  0.03854560  1  -1.233196  0  -0.317873  -0.276507  0  3.523089  0
N  N349  1  0.77648245  0.30753336  0.53854559  1  -1.233276  0  -0.317852  -0.276561  0  3.523208  0
N  N350  1  0.27648871  0.69247142  0.96145436  1  -1.233113  0  -0.318027  -0.276784  0  3.523339  0
N  N351  1  0.72351280  0.80753196  0.46145428  1  -1.233222  0  -0.317895  -0.276525  0  3.523118  0
N  N352  1  0.87564206  0.94006133  0.90218469  1  -0.735969  0  -0.245554  -0.244442  0  3.527866  0
N  N353  1  0.12435675  0.55993940  0.40218277  1  -0.735779  0  -0.245506  -0.244467  0  3.527952  0
N  N354  1  0.62435855  0.44006139  0.09781639  1  -0.735845  0  -0.245552  -0.244513  0  3.527857  0
N  N355  1  0.37565054  0.05993801  0.59781780  1  -0.735703  0  -0.245461  -0.244343  0  3.52794  0
N  N356  1  0.12435229  0.05993979  0.09781583  1  -0.735872  0  -0.245527  -0.244527  0  3.527958  0
N  N357  1  0.87564366  0.44006225  0.59781714  1  -0.735763  0  -0.245512  -0.244493  0  3.527951  0
N  N358  1  0.37563984  0.55994080  0.90218352  1  -0.735505  0  -0.24546  -0.244318  0  3.527769  0
N  N359  1  0.62435493  0.94006153  0.40218394  1  -0.735889  0  -0.245491  -0.244436  0  3.527932  0
N  N360  1  0.85794919  0.92721815  0.86259414  1  -0.087161  0  -0.091686  -0.03717  0  3.209492  0
N  N361  1  0.14204917  0.57278259  0.36259194  1  -0.087204  0  -0.091719  -0.037201  0  3.209603  0
N  N362  1  0.64205149  0.42721923  0.13740755  1  -0.087219  0  -0.091691  -0.037144  0  3.209478  0
N  N363  1  0.35795906  0.07278175  0.63740863  1  -0.087242  0  -0.091709  -0.037255  0  3.209415  0
N  N364  1  0.14204920  0.07278192  0.13740669  1  -0.087141  0  -0.09168  -0.037105  0  3.209497  0
N  N365  1  0.85795327  0.42722013  0.63740797  1  -0.087082  0  -0.091722  -0.037226  0  3.2096  0
N  N366  1  0.35794691  0.57278348  0.86259266  1  -0.087303  0  -0.091769  -0.037256  0  3.209554  0
N  N367  1  0.64205044  0.92721884  0.36259311  1  -0.087151  0  -0.091717  -0.037136  0  3.20944  0
N  N368  1  0.96866389  0.94490934  0.84192023  1  -0.699983  0  -0.233265  -0.215022  0  3.540279  0
N  N369  1  0.03133524  0.55508981  0.34191823  1  -0.700095  0  -0.233239  -0.214971  0  3.540162  0
N  N370  1  0.53133771  0.44490900  0.15808146  1  -0.700096  0  -0.233229  -0.214958  0  3.540281  0
N  N371  1  0.46867409  0.05508987  0.65808265  1  -0.69998  0  -0.233272  -0.214871  0  3.540117  0
N  N372  1  0.03133450  0.05509126  0.15808059  1  -0.700182  0  -0.233229  -0.214977  0  3.540232  0
N  N373  1  0.96866820  0.44491079  0.65808230  1  -0.700173  0  -0.233261  -0.214932  0  3.540063  0
N  N374  1  0.46866170  0.55509319  0.84191907  1  -0.700298  0  -0.233236  -0.215064  0  3.540276  0
N  N375  1  0.53133441  0.94490861  0.34191879  1  -0.700207  0  -0.233281  -0.215085  0  3.540277  0
N  N376  1  0.27413782  0.55504934  0.76577624  1  -0.729954  0  -0.240715  -0.219785  0  3.558943  0
N  N377  1  0.72586348  0.94495352  0.26577586  1  -0.729922  0  -0.240761  -0.21985  0  3.558814  0
N  N378  1  0.22586343  0.05504606  0.23422281  1  -0.729889  0  -0.240747  -0.21982  0  3.558749  0
N  N379  1  0.77414014  0.44495386  0.73422309  1  -0.730067  0  -0.240792  -0.219925  0  3.558901  0
N  N380  1  0.72586259  0.44494914  0.23422428  1  -0.729946  0  -0.240665  -0.219628  0  3.558765  0
N  N381  1  0.27413795  0.05504866  0.73422375  1  -0.729994  0  -0.240722  -0.219826  0  3.558976  0
N  N382  1  0.77413699  0.94495348  0.76577802  1  -0.729894  0  -0.240774  -0.21986  0  3.558804  0
N  N383  1  0.22586229  0.55504620  0.26577621  1  -0.729896  0  -0.240771  -0.219852  0  3.558802  0
N  N384  1  0.21444799  0.49631807  0.75266176  1  -0.083059  0  -0.090807  -0.042841  0  3.232905  0
N  N385  1  0.78555378  0.00368450  0.25266144  1  -0.083119  0  -0.090757  -0.042809  0  3.232848  0
N  N386  1  0.28555701  0.99631605  0.24733759  1  -0.083135  0  -0.090793  -0.042832  0  3.232929  0
N  N387  1  0.71445015  0.50368469  0.74733812  1  -0.083177  0  -0.090785  -0.042836  0  3.232873  0
N  N388  1  0.78555344  0.50368041  0.24733846  1  -0.082989  0  -0.090841  -0.042966  0  3.232885  0
N  N389  1  0.21444664  0.99631821  0.74733847  1  -0.083064  0  -0.090834  -0.042879  0  3.232968  0
N  N390  1  0.71444644  0.00368508  0.75266385  1  -0.083208  0  -0.090766  -0.04282  0  3.233166  0
N  N391  1  0.28555431  0.49631590  0.25266179  1  -0.083105  0  -0.090762  -0.042769  0  3.232833  0
N  N392  1  0.08805099  0.51122919  0.74096277  1  -0.769301  0  -0.253537  -0.2397  0  3.585178  0
N  N393  1  0.91195003  0.98877262  0.24096227  1  -0.769435  0  -0.253542  -0.239655  0  3.58523  0
N  N394  1  0.41195150  0.01122669  0.25903689  1  -0.76941  0  -0.253534  -0.239703  0  3.585332  0
N  N395  1  0.58805235  0.48877376  0.75903729  1  -0.769356  0  -0.253548  -0.239656  0  3.585218  0
N  N396  1  0.91195044  0.48877035  0.25903654  1  -0.769299  0  -0.253526  -0.239628  0  3.585188  0
N  N397  1  0.08805140  0.01122904  0.75903734  1  -0.769321  0  -0.253519  -0.23965  0  3.585216  0
N  N398  1  0.58805194  0.98877337  0.74096485  1  -0.769257  0  -0.253552  -0.239748  0  3.585512  0
N  N399  1  0.41195110  0.51122631  0.24096262  1  -0.769464  0  -0.253582  -0.23975  0  3.585238  0
O  O400  1  0.00089427  0.84142021  0.75914749  1  -1.177078  0  -0.344819  -0.549107  0  2.354251  0
O  O401  1  0.99910695  0.65857947  0.25914526  1  -1.177047  0  -0.344851  -0.549055  0  2.354377  0
O  O402  1  0.49910648  0.34141759  0.24085156  1  -1.176918  0  -0.344846  -0.549071  0  2.354283  0
O  O403  1  0.50089717  0.15858286  0.74085370  1  -1.176916  0  -0.34476  -0.548987  0  2.354148  0
O  O404  1  0.99911422  0.15857826  0.24085486  1  -1.177148  0  -0.344864  -0.549077  0  2.354379  0
O  O405  1  0.00089650  0.34142060  0.74085374  1  -1.176973  0  -0.344812  -0.549088  0  2.354297  0
O  O406  1  0.50090000  0.65858088  0.75914744  1  -1.176902  0  -0.344792  -0.549056  0  2.354203  0
O  O407  1  0.49910729  0.84141880  0.25914652  1  -1.177029  0  -0.344833  -0.549101  0  2.354383  0
O  O408  1  0.60182599  0.00983085  0.92876505  1  -1.230932  0  -0.565092  -0.748641  0  2.09602  0
O  O409  1  0.39817172  0.49016959  0.42876403  1  -1.230849  0  -0.565074  -0.748634  0  2.09603  0
O  O410  1  0.89817285  0.50983239  0.07123512  1  -1.230689  0  -0.565116  -0.748695  0  2.096153  0
O  O411  1  0.10182926  0.99016730  0.57123532  1  -1.230717  0  -0.56514  -0.748681  0  2.09607  0
O  O412  1  0.39817241  0.99016762  0.07123577  1  -1.230752  0  -0.565089  -0.748691  0  2.096126  0
O  O413  1  0.60182870  0.50983365  0.57123558  1  -1.230608  0  -0.565125  -0.748695  0  2.096085  0
O  O414  1  0.10182656  0.49016980  0.92876449  1  -1.23085  0  -0.565075  -0.748628  0  2.096056  0
O  O415  1  0.89817216  0.00983223  0.42876459  1  -1.230755  0  -0.565107  -0.748667  0  2.096171  0
O  O416  1  0.17251281  0.82307788  0.80339839  1  -1.191133  0  -0.330223  -0.566424  0  2.164861  0
O  O417  1  0.82748790  0.67692498  0.30339781  1  -1.191065  0  -0.330128  -0.566286  0  2.164958  0
O  O418  1  0.32747995  0.32307605  0.19660370  1  -1.191137  0  -0.33013  -0.566287  0  2.164931  0
O  O419  1  0.67251511  0.17692441  0.69660145  1  -1.191184  0  -0.330167  -0.56633  0  2.164991  0
O  O420  1  0.82749164  0.17692059  0.19660305  1  -1.190957  0  -0.330259  -0.566417  0  2.164581  0
O  O421  1  0.17251049  0.32307721  0.69660211  1  -1.191086  0  -0.330223  -0.566389  0  2.164966  0
O  O422  1  0.67251339  0.67692349  0.80339834  1  -1.191161  0  -0.330164  -0.566355  0  2.165003  0
O  O423  1  0.32748733  0.82307672  0.30339724  1  -1.191051  0  -0.330169  -0.566341  0  2.1648  0
O  O424  1  0.40189110  0.05873471  0.97270191  1  -1.195818  0  -0.326374  -0.568907  0  2.178936  0
O  O425  1  0.59811014  0.44126785  0.47270170  1  -1.195809  0  -0.326339  -0.568881  0  2.178935  0
O  O426  1  0.09811013  0.55873298  0.02729744  1  -1.195852  0  -0.326356  -0.5689  0  2.178777  0
O  O427  1  0.90189451  0.94126671  0.52729725  1  -1.195883  0  -0.326408  -0.56899  0  2.178886  0
O  O428  1  0.59810527  0.94126642  0.02729770  1  -1.195887  0  -0.326449  -0.569006  0  2.178891  0
O  O429  1  0.40188927  0.55873221  0.52729669  1  -1.195824  0  -0.326344  -0.568881  0  2.178798  0
O  O430  1  0.90188826  0.44126656  0.97270216  1  -1.195848  0  -0.326342  -0.568878  0  2.178807  0
O  O431  1  0.09810893  0.05873388  0.47270266  1  -1.195809  0  -0.32638  -0.568947  0  2.178798  0
O  O432  1  0.20666403  0.04504196  0.00687529  1  -1.18166  0  -0.330473  -0.555696  0  2.39088  0
O  O433  1  0.79333696  0.45496009  0.50687468  1  -1.181999  0  -0.33047  -0.555708  0  2.390815  0
O  O434  1  0.29333728  0.54504255  0.99312558  1  -1.182015  0  -0.330474  -0.555731  0  2.390829  0
O  O435  1  0.70666358  0.95495871  0.49312579  1  -1.181945  0  -0.330457  -0.555756  0  2.390793  0
O  O436  1  0.79333639  0.95495545  0.99312553  1  -1.181868  0  -0.330446  -0.555733  0  2.390837  0
O  O437  1  0.20666144  0.54503838  0.49312492  1  -1.182025  0  -0.330508  -0.555767  0  2.39078  0
O  O438  1  0.70665909  0.45496123  0.00687494  1  -1.182084  0  -0.330568  -0.555846  0  2.390795  0
O  O439  1  0.29333987  0.04503977  0.50687504  1  -1.182053  0  -0.33049  -0.555729  0  2.39086  0
