# generated using pymatgen
data_CuP2H27C35BrN
_symmetry_space_group_name_H-M   'P 1'
_cell_length_a   18.49429674
_cell_length_b   18.50278003
_cell_length_c   21.15497415
_cell_angle_alpha   89.98964444
_cell_angle_beta   90.00008586
_cell_angle_gamma   119.98481653
_symmetry_Int_Tables_number   1
_chemical_formula_structural   CuP2H27C35BrN
_chemical_formula_sum   'Cu6 P12 H162 C210 Br6 N6'
_cell_volume   6270.24275138
_cell_formula_units_Z   6
loop_
 _symmetry_equiv_pos_site_id
 _symmetry_equiv_pos_as_xyz
  1  'x, y, z'
loop_
 _atom_site_type_symbol
 _atom_site_label
 _atom_site_symmetry_multiplicity
 _atom_site_fract_x
 _atom_site_fract_y
 _atom_site_fract_z
 _atom_site_occupancy
 _atom_site_pbe_bader_charge
 _atom_site_pbe_bader_spin_density
 _atom_site_pbe_cm5_charge
 _atom_site_pbe_ddec_charge
 _atom_site_pbe_ddec_spin_density
 _atom_site_pbe_ddec_sum_bond_order
 _atom_site_pbe_magmom
Cu  Cu0  1  0.84234556  0.50860020  0.98944351  1  0.400429  0  0.413157  0.009321  0  2.979474  0
Cu  Cu1  1  0.66629959  0.15785032  0.32295551  1  0.403413  0  0.412985  0.009806  0  2.978258  0
Cu  Cu2  1  0.49144095  0.33367426  0.65632126  1  0.405341  0  0.413387  0.009383  0  2.98079  0
Cu  Cu3  1  0.33374336  0.49139746  0.01055796  1  0.403089  0  0.41315  0.009363  0  2.979498  0
Cu  Cu4  1  0.50843983  0.84214832  0.67704879  1  0.401882  0  0.412905  0.009566  0  2.978574  0
Cu  Cu5  1  0.15777109  0.66633096  0.34367797  1  0.40556  0  0.413417  0.009349  0  2.980824  0
P  P6  1  0.73604768  0.38786934  0.02615706  1  1.417505  0  -0.022774  0.24476  0  4.169805  0
P  P7  1  0.66901981  0.14458657  0.21754069  1  1.37937  0  -0.025684  0.243151  0  4.159849  0
P  P8  1  0.65187429  0.26412649  0.35966046  1  1.400641  0  -0.02312  0.24441  0  4.170272  0
P  P9  1  0.47546880  0.33106144  0.55095333  1  1.392594  0  -0.026352  0.24238  0  4.161159  0
P  P10  1  0.61228225  0.34825271  0.69293332  1  1.385716  0  -0.023527  0.244427  0  4.171946  0
P  P11  1  0.85579608  0.52463485  0.88405758  1  1.360267  0  -0.026089  0.24279  0  4.160103  0
P  P12  1  0.34818173  0.61213142  0.97384198  1  1.389115  0  -0.022774  0.244649  0  4.169866  0
P  P13  1  0.52443219  0.85541336  0.78246079  1  1.396974  0  -0.025643  0.243359  0  4.159792  0
P  P14  1  0.38774777  0.73586897  0.64033572  1  1.39117  0  -0.023072  0.244583  0  4.170464  0
P  P15  1  0.14440838  0.66893987  0.44904683  1  1.375994  0  -0.026321  0.242361  0  4.160846  0
P  P16  1  0.26402701  0.65174686  0.30706794  1  1.41042  0  -0.023534  0.244475  0  4.17218  0
P  P17  1  0.33116349  0.47536469  0.11594390  1  1.383301  0  -0.026151  0.242717  0  4.160135  0
H  H18  1  0.65480446  0.22596715  0.09765653  1  0.084224  0  0.101669  0.103299  0  1.023564  0
H  H19  1  0.81134287  0.28864500  0.26242050  1  0.120131  0  0.094843  0.098857  0  1.059817  0
H  H20  1  0.85502196  0.47794222  0.12386889  1  0.091522  0  0.099093  0.096182  0  1.062958  0
H  H21  1  0.95255693  0.36878392  0.27080519  1  0.094405  0  0.113821  0.127153  0  0.982396  0
H  H22  1  0.07290128  0.48017621  0.33001451  1  0.076222  0  0.111805  0.078093  0  1.007548  0
H  H23  1  0.01899540  0.66126559  0.27143617  1  0.094759  0  0.100335  0.08637  0  1.033561  0
H  H24  1  0.89349382  0.55695133  0.21112111  1  0.073259  0  0.112511  0.123003  0  0.985808  0
H  H25  1  0.62987840  0.31236284  0.91401656  1  0.072278  0  0.098962  0.102044  0  1.020871  0
H  H26  1  0.61592068  0.20311155  0.83970933  1  0.098358  0  0.096325  0.097263  0  1.048688  0
H  H27  1  0.69412587  0.12798438  0.85782973  1  0.074019  0  0.097027  0.090772  0  1.035008  0
H  H28  1  0.78625032  0.16217352  0.95225737  1  0.025776  0  0.09918  0.094574  0  1.002674  0
H  H29  1  0.80027302  0.27119407  0.02726630  1  0.038119  0  0.097637  0.095638  0  1.023883  0
H  H30  1  0.69781137  0.51187239  0.06312200  1  0.119569  0  0.078432  0.098189  0  1.092607  0
H  H31  1  0.56727981  0.51021356  0.09401832  1  0.078053  0  0.098907  0.098648  0  1.013434  0
H  H32  1  0.43055965  0.37912894  0.08512430  1  0.047807  0  0.092487  0.082584  0  1.060977  0
H  H33  1  0.42463845  0.24830620  0.04902586  1  0.047133  0  0.09907  0.093839  0  0.997655  0
H  H34  1  0.55479984  0.24821661  0.02118286  1  0.06834  0  0.098398  0.098141  0  1.014766  0
H  H35  1  0.75181172  0.14852290  0.09493333  1  0.080774  0  0.097023  0.093929  0  1.032898  0
H  H36  1  0.81490239  0.06614555  0.05573445  1  0.050717  0  0.09927  0.093296  0  1.004027  0
H  H37  1  0.82055670  0.96038706  0.12539114  1  0.062312  0  0.104044  0.097793  0  0.991015  0
H  H38  1  0.76624058  0.94058617  0.23565279  1  0.049459  0  0.102922  0.098835  0  0.988652  0
H  H39  1  0.70702451  0.02641036  0.27580822  1  0.075111  0  0.092991  0.096609  0  1.044315  0
H  H40  1  0.52741913  0.16918821  0.22230113  1  0.084803  0  0.092429  0.087437  0  1.076591  0
H  H41  1  0.39373634  0.10933648  0.16462477  1  0.069319  0  0.099658  0.095852  0  1.003339  0
H  H42  1  0.35901470  0.99989709  0.08218984  1  0.055257  0  0.101238  0.096211  0  0.994553  0
H  H43  1  0.46096296  0.95270368  0.05794118  1  0.062367  0  0.099644  0.097242  0  1.006269  0
H  H44  1  0.59577875  0.01463732  0.11406792  1  0.079161  0  0.095785  0.092849  0  1.047088  0
H  H45  1  0.57113814  0.34528828  0.43114356  1  0.087112  0  0.101738  0.103372  0  1.024516  0
H  H46  1  0.47724808  0.18876124  0.59590199  1  0.132959  0  0.09489  0.098923  0  1.059229  0
H  H47  1  0.62305254  0.14514314  0.45739957  1  0.083761  0  0.09946  0.096546  0  1.062427  0
H  H48  1  0.41614103  0.04757269  0.60411874  1  0.089888  0  0.113549  0.126599  0  0.982794  0
H  H49  1  0.40710090  0.92712062  0.66325849  1  0.086805  0  0.111944  0.078675  0  1.007061  0
H  H50  1  0.64225048  0.98100315  0.60494422  1  0.127035  0  0.100346  0.086187  0  1.033165  0
H  H51  1  0.66356025  0.10663506  0.54475089  1  0.068644  0  0.11229  0.122605  0  0.986006  0
H  H52  1  0.68234405  0.37005057  0.24740333  1  0.072727  0  0.098875  0.102013  0  1.020673  0
H  H53  1  0.58695325  0.38394092  0.17309671  1  0.076011  0  0.096397  0.097094  0  1.048794  0
H  H54  1  0.43364889  0.30589268  0.19129708  1  0.066286  0  0.097108  0.09114  0  1.03492  0
H  H55  1  0.37583333  0.21407939  0.28588962  1  0.019473  0  0.09919  0.094772  0  1.002688  0
H  H56  1  0.47093603  0.20011694  0.36090907  1  0.026583  0  0.097478  0.095482  0  1.024375  0
H  H57  1  0.81432504  0.30242248  0.39644936  1  0.116274  0  0.078365  0.097991  0  1.093185  0
H  H58  1  0.94316502  0.43303039  0.42720541  1  0.062422  0  0.098809  0.097933  0  1.013647  0
H  H59  1  0.94856374  0.56959743  0.41812064  1  0.050757  0  0.092617  0.08269  0  1.0609  0
H  H60  1  0.82350791  0.57537967  0.38212762  1  0.071621  0  0.099045  0.094084  0  0.997422  0
H  H61  1  0.69323177  0.44517522  0.35461758  1  0.057426  0  0.098636  0.097943  0  1.015078  0
H  H62  1  0.39672831  0.24845314  0.42832812  1  0.069622  0  0.096997  0.093969  0  1.032773  0
H  H63  1  0.25120102  0.18529344  0.38914270  1  0.037699  0  0.099234  0.093434  0  1.004045  0
H  H64  1  0.13972927  0.17944014  0.45884963  1  0.100128  0  0.104133  0.098019  0  0.990476  0
H  H65  1  0.17411769  0.23353648  0.56913812  1  0.060297  0  0.102893  0.098938  0  0.988112  0
H  H66  1  0.31920414  0.29281688  0.60928248  1  0.093499  0  0.093078  0.096706  0  1.044696  0
H  H67  1  0.64156365  0.47274344  0.55580635  1  0.079395  0  0.092404  0.087868  0  1.076722  0
H  H68  1  0.71538377  0.60622259  0.49789788  1  0.081226  0  0.099683  0.095637  0  1.003356  0
H  H69  1  0.64063188  0.64071928  0.41526253  1  0.076848  0  0.101021  0.096  0  0.9941  0
H  H70  1  0.49151835  0.53881174  0.39107145  1  0.073589  0  0.099732  0.097558  0  1.006057  0
H  H71  1  0.41874155  0.40413931  0.44732224  1  0.07988  0  0.095905  0.092518  0  1.047199  0
H  H72  1  0.77427604  0.42902447  0.76422706  1  0.091925  0  0.101595  0.103377  0  1.024096  0
H  H73  1  0.71172085  0.52297425  0.92901063  1  0.135011  0  0.095119  0.099153  0  1.060011  0
H  H74  1  0.52214878  0.37700519  0.79072974  1  0.091419  0  0.099353  0.096674  0  1.062517  0
H  H75  1  0.63134470  0.58393222  0.93735321  1  0.096219  0  0.113596  0.126957  0  0.98274  0
H  H76  1  0.51987704  0.59274910  0.99666662  1  0.080105  0  0.111611  0.078237  0  1.006993  0
H  H77  1  0.33882507  0.35772202  0.93827611  1  0.142496  0  0.100263  0.086362  0  1.033381  0
H  H78  1  0.44323417  0.33663517  0.87794736  1  0.10525  0  0.11233  0.122869  0  0.985805  0
H  H79  1  0.68786915  0.31773824  0.58076169  1  0.121565  0  0.098563  0.10154  0  1.020644  0
H  H80  1  0.79701229  0.41305728  0.50637787  1  0.106079  0  0.096214  0.097174  0  1.048016  0
H  H81  1  0.87208461  0.56630131  0.52444241  1  0.074293  0  0.09707  0.091068  0  1.034931  0
H  H82  1  0.83793079  0.62416189  0.61893285  1  0.080544  0  0.099008  0.094767  0  1.002679  0
H  H83  1  0.72892525  0.52916012  0.69398978  1  0.054846  0  0.097728  0.095856  0  1.02393  0
H  H84  1  0.48821962  0.18615204  0.72998651  1  0.115634  0  0.078327  0.097949  0  1.093172  0
H  H85  1  0.48980627  0.05727265  0.76079890  1  0.074194  0  0.098997  0.098246  0  1.013699  0
H  H86  1  0.62086093  0.05150481  0.75168102  1  0.048172  0  0.09256  0.082412  0  1.061023  0
H  H87  1  0.75176981  0.17632117  0.71552561  1  0.045656  0  0.099222  0.094485  0  0.997468  0
H  H88  1  0.75194517  0.30661165  0.68785232  1  0.070725  0  0.09861  0.09848  0  1.014053  0
H  H89  1  0.85198469  0.60327962  0.76138517  1  0.08128  0  0.096963  0.09371  0  1.033269  0
H  H90  1  0.93397114  0.74874057  0.72221084  1  0.059808  0  0.099363  0.093668  0  1.004163  0
H  H91  1  0.03936817  0.86029603  0.79190892  1  0.061927  0  0.103964  0.097646  0  0.991661  0
H  H92  1  0.05924234  0.82593657  0.90220770  1  0.080721  0  0.102852  0.098764  0  0.988952  0
H  H93  1  0.97380766  0.68086820  0.94234129  1  0.112154  0  0.092994  0.096583  0  1.044237  0
H  H94  1  0.83123988  0.35857657  0.88902790  1  0.070462  0  0.09248  0.088007  0  1.07655  0
H  H95  1  0.89072592  0.28450853  0.83119775  1  0.042515  0  0.099716  0.095495  0  1.003736  0
H  H96  1  0.99994231  0.35896441  0.74850170  1  0.054141  0  0.101199  0.096192  0  0.9944  0
H  H97  1  0.04732662  0.50805600  0.72418815  1  0.072183  0  0.099792  0.097247  0  1.005933  0
H  H98  1  0.98564976  0.58111613  0.78040571  1  0.078637  0  0.095841  0.092882  0  1.04771  0
H  H99  1  0.42883707  0.77402888  0.90234534  1  0.076628  0  0.101666  0.103278  0  1.023534  0
H  H100  1  0.52270201  0.71135993  0.73758060  1  0.12128  0  0.094843  0.098898  0  1.059832  0
H  H101  1  0.37708321  0.52205644  0.87612741  1  0.09409  0  0.099114  0.096249  0  1.062886  0
H  H102  1  0.58377942  0.63122646  0.72919225  1  0.098584  0  0.113783  0.12709  0  0.982522  0
H  H103  1  0.59273776  0.51983734  0.66997952  1  0.080777  0  0.111756  0.077945  0  1.007609  0
H  H104  1  0.35774449  0.33873975  0.72855910  1  0.143327  0  0.100336  0.086395  0  1.033603  0
H  H105  1  0.33654884  0.44305082  0.78887425  1  0.07475  0  0.112576  0.123123  0  0.985667  0
H  H106  1  0.31752038  0.68764155  0.08598191  1  0.082957  0  0.098913  0.102035  0  1.020921  0
H  H107  1  0.41281335  0.79689399  0.16028778  1  0.087987  0  0.096314  0.097297  0  1.0486  0
H  H108  1  0.56614634  0.87201916  0.14217037  1  0.061156  0  0.097048  0.090848  0  1.03505  0
H  H109  1  0.62408124  0.83782878  0.04774236  1  0.082019  0  0.099196  0.094621  0  1.00268  0
H  H110  1  0.52908339  0.72880817  0.97273337  1  0.067859  0  0.097658  0.095697  0  1.023955  0
H  H111  1  0.18594330  0.48812839  0.93688117  1  0.114017  0  0.078435  0.098222  0  1.092621  0
H  H112  1  0.05707040  0.48978854  0.90598420  1  0.08486  0  0.098924  0.098674  0  1.013457  0
H  H113  1  0.05143408  0.62087336  0.91487813  1  0.047975  0  0.092512  0.082602  0  1.061061  0
H  H114  1  0.17633614  0.75169674  0.95097380  1  0.049529  0  0.099068  0.093852  0  0.997644  0
H  H115  1  0.30658908  0.75178843  0.97881603  1  0.064653  0  0.098406  0.098143  0  1.014823  0
H  H116  1  0.60328798  0.85148235  0.90506778  1  0.076066  0  0.097044  0.093941  0  1.032888  0
H  H117  1  0.74875515  0.93385800  0.94426727  1  0.049924  0  0.099258  0.093243  0  1.004157  0
H  H118  1  0.86017024  0.03961558  0.87461066  1  0.065206  0  0.104026  0.097801  0  0.991059  0
H  H119  1  0.82565569  0.05941653  0.76434800  1  0.062034  0  0.102901  0.098811  0  0.988576  0
H  H120  1  0.68061554  0.97359322  0.72419291  1  0.076081  0  0.092954  0.096577  0  1.044299  0
H  H121  1  0.35823094  0.83081181  0.77769778  1  0.084635  0  0.092434  0.087434  0  1.076629  0
H  H122  1  0.28439710  0.89066003  0.83537542  1  0.03645  0  0.099668  0.095865  0  1.003415  0
H  H123  1  0.35911442  0.00009768  0.91781180  1  0.059224  0  0.101218  0.096177  0  0.994535  0
H  H124  1  0.50825685  0.04729180  0.94206157  1  0.072346  0  0.099632  0.09725  0  1.006202  0
H  H125  1  0.58113977  0.98536018  0.88593402  1  0.078899  0  0.09579  0.092847  0  1.047157  0
H  H126  1  0.22585092  0.65470977  0.56885340  1  0.101442  0  0.101725  0.103362  0  1.024445  0
H  H127  1  0.28848734  0.81123650  0.40409495  1  0.126717  0  0.094907  0.098943  0  1.059231  0
H  H128  1  0.47791171  0.85485226  0.54259664  1  0.078607  0  0.099484  0.096544  0  1.062485  0
H  H129  1  0.36857161  0.95242125  0.39587632  1  0.091527  0  0.113548  0.126579  0  0.982926  0
H  H130  1  0.47998387  0.07287433  0.33673806  1  0.082887  0  0.111974  0.078811  0  1.007049  0
H  H131  1  0.66125114  0.01899510  0.39505827  1  0.095565  0  0.100409  0.086317  0  1.033198  0
H  H132  1  0.55692914  0.89335958  0.45524824  1  0.056923  0  0.112283  0.12264  0  0.985954  0
H  H133  1  0.31230514  0.62994931  0.75259234  1  0.078616  0  0.098874  0.101936  0  1.020724  0
H  H134  1  0.20302550  0.61605770  0.82690355  1  0.092312  0  0.096453  0.097145  0  1.048718  0
H  H135  1  0.12776681  0.69410239  0.80870398  1  0.064547  0  0.097163  0.091268  0  1.034893  0
H  H136  1  0.16175659  0.78591466  0.71411237  1  0.025457  0  0.09918  0.094776  0  1.002541  0
H  H137  1  0.27082052  0.79987716  0.63908974  1  0.046883  0  0.0975  0.095468  0  1.024347  0
H  H138  1  0.51190064  0.69757331  0.60354559  1  0.124048  0  0.07835  0.097948  0  1.093179  0
H  H139  1  0.51013183  0.56696472  0.57278915  1  0.056304  0  0.098777  0.097926  0  1.013688  0
H  H140  1  0.37896447  0.43039786  0.58187951  1  0.081307  0  0.092651  0.082718  0  1.060985  0
H  H141  1  0.24812814  0.42461598  0.61787236  1  0.077643  0  0.099042  0.094069  0  0.997374  0
H  H142  1  0.24805359  0.55482070  0.64538043  1  0.056294  0  0.098678  0.098099  0  1.014992  0
H  H143  1  0.14827607  0.75154927  0.57167246  1  0.06331  0  0.096996  0.093939  0  1.032821  0
H  H144  1  0.06590661  0.81470741  0.61085631  1  0.05762  0  0.099275  0.093531  0  1.004081  0
H  H145  1  0.96029075  0.82056191  0.54114800  1  0.056343  0  0.104136  0.098044  0  0.990468  0
H  H146  1  0.94058629  0.76646721  0.43085952  1  0.051669  0  0.102905  0.098999  0  0.988091  0
H  H147  1  0.02639314  0.70718743  0.39071608  1  0.090542  0  0.093062  0.096682  0  1.044673  0
H  H148  1  0.16881981  0.52725784  0.44419488  1  0.08007  0  0.092402  0.087852  0  1.076742  0
H  H149  1  0.10915959  0.39377884  0.50210288  1  0.069657  0  0.099635  0.095583  0  1.003443  0
H  H150  1  0.99991436  0.35928303  0.58473971  1  0.060118  0  0.101033  0.096032  0  0.994086  0
H  H151  1  0.95270970  0.46119207  0.60893161  1  0.072657  0  0.099738  0.097526  0  1.006021  0
H  H152  1  0.01460306  0.59586360  0.55268016  1  0.074138  0  0.095892  0.09252  0  1.047204  0
H  H153  1  0.34525194  0.57097508  0.23577531  1  0.098338  0  0.101601  0.103408  0  1.024041  0
H  H154  1  0.18874945  0.47702631  0.07099065  1  0.109611  0  0.095106  0.099139  0  1.060079  0
H  H155  1  0.14514627  0.62299611  0.20927044  1  0.083008  0  0.099369  0.096704  0  1.062455  0
H  H156  1  0.04741653  0.41607021  0.06264887  1  0.091339  0  0.113587  0.126973  0  0.982628  0
H  H157  1  0.92713195  0.40724977  0.00333502  1  0.07158  0  0.111608  0.0782  0  1.006913  0
H  H158  1  0.98110149  0.64227689  0.06172214  1  0.126487  0  0.100257  0.086336  0  1.033366  0
H  H159  1  0.10660024  0.66336789  0.12204897  1  0.06206  0  0.112336  0.122855  0  0.985861  0
H  H160  1  0.37012898  0.68225977  0.41923970  1  0.074508  0  0.098578  0.10158  0  1.02065  0
H  H161  1  0.38395534  0.58694101  0.49362218  1  0.100959  0  0.096236  0.097183  0  1.048061  0
H  H162  1  0.30578424  0.43369750  0.47555716  1  0.067645  0  0.09708  0.091102  0  1.034907  0
H  H163  1  0.21376746  0.37583785  0.38106664  1  0.020265  0  0.099001  0.094773  0  1.002681  0
H  H164  1  0.19976111  0.47084065  0.30601152  1  0.0339  0  0.097781  0.09587  0  1.02398  0
H  H165  1  0.30206629  0.81384655  0.27001423  1  0.114486  0  0.078316  0.097916  0  1.093242  0
H  H166  1  0.43252953  0.94272538  0.23920145  1  0.068904  0  0.099022  0.098285  0  1.013738  0
H  H167  1  0.56935300  0.94849434  0.24831998  1  0.050131  0  0.092557  0.082442  0  1.06088  0
H  H168  1  0.57544579  0.82367744  0.28447548  1  0.033266  0  0.099225  0.094508  0  0.997471  0
H  H169  1  0.44533094  0.69338697  0.31215010  1  0.056796  0  0.098621  0.098535  0  1.013996  0
H  H170  1  0.24870663  0.39671944  0.23861672  1  0.047266  0  0.097031  0.093785  0  1.033276  0
H  H171  1  0.18522803  0.25125796  0.27779059  1  0.05668  0  0.099377  0.093691  0  1.004123  0
H  H172  1  0.17906861  0.13970204  0.20809286  1  0.062661  0  0.103968  0.097635  0  0.991593  0
H  H173  1  0.23330108  0.17406094  0.09779366  1  0.074625  0  0.102875  0.098741  0  0.988945  0
H  H174  1  0.29293573  0.31912886  0.05766023  1  0.113298  0  0.093013  0.096634  0  1.044268  0
H  H175  1  0.47266276  0.64142187  0.11097364  1  0.078963  0  0.092478  0.088  0  1.076532  0
H  H176  1  0.60621701  0.71548962  0.16880392  1  0.077169  0  0.099749  0.09551  0  1.003715  0
H  H177  1  0.64097943  0.64103441  0.25149960  1  0.060379  0  0.1012  0.096183  0  0.994406  0
H  H178  1  0.53927141  0.49194178  0.27581293  1  0.065001  0  0.099771  0.097239  0  1.005937  0
H  H179  1  0.40453502  0.41888296  0.21959448  1  0.086412  0  0.095841  0.092883  0  1.047698  0
C  C180  1  0.75469681  0.35467679  0.10354244  1  -0.493874  0  -0.024012  -0.031083  0  3.95494  0
C  C181  1  0.70745228  0.27207693  0.12535468  1  -0.058205  0  -0.076698  -0.102811  0  3.938283  0
C  C182  1  0.72802774  0.24869412  0.18244099  1  -0.487177  0  -0.02306  -0.03468  0  3.97232  0
C  C183  1  0.79623732  0.30784499  0.21775761  1  -0.033073  0  -0.07744  -0.130711  0  3.921225  0
C  C184  1  0.84186848  0.39084416  0.19765179  1  -0.043788  0  -0.007691  0.065901  0  3.998112  0
C  C185  1  0.81966621  0.41379406  0.14065296  1  -0.011707  0  -0.080402  -0.133658  0  3.936106  0
C  C186  1  0.91281471  0.45353777  0.23480363  1  -0.017299  0  0.013009  0.115414  0  3.977054  0
C  C187  1  0.96441357  0.43271602  0.26963825  1  -0.043159  0  -0.078267  -0.162066  0  3.929344  0
C  C188  1  0.03176626  0.49460566  0.30259285  1  0.470454  0  0.040092  0.080241  0  3.96499  0
C  C189  1  0.00069103  0.59522208  0.27024307  1  0.507073  0  0.036579  0.082164  0  3.937375  0
C  C190  1  0.93211284  0.53711007  0.23620853  1  0.014745  0  -0.080468  -0.167665  0  3.944238  0
C  C191  1  0.71499295  0.29869052  0.97668334  1  -0.554148  0  -0.029907  -0.057387  0  3.987035  0
C  C192  1  0.66359026  0.27905600  0.92312582  1  -0.055154  0  -0.08944  -0.103421  0  3.974668  0
C  C193  1  0.65602263  0.21772998  0.88097367  1  -0.011525  0  -0.089516  -0.069753  0  3.982814  0
C  C194  1  0.69984578  0.17537754  0.89123752  1  -0.066289  0  -0.09239  -0.083523  0  3.999827  0
C  C195  1  0.75156446  0.19475377  0.94406332  1  -0.031885  0  -0.094243  -0.084838  0  4.023858  0
C  C196  1  0.75930965  0.25610872  0.98636436  1  -0.072678  0  -0.095575  -0.118287  0  4.013715  0
C  C197  1  0.63776850  0.45385910  0.06065147  1  -0.004834  0  -0.0911  -0.101006  0  3.953107  0
C  C198  1  0.56437964  0.45307432  0.07727831  1  -0.08364  0  -0.089639  -0.072082  0  3.98814  0
C  C199  1  0.48777150  0.37940415  0.07255800  1  -0.062609  0  -0.090979  -0.077768  0  4.002269  0
C  C200  1  0.48458830  0.30602983  0.05216576  1  0.025603  0  -0.092863  -0.085602  0  4.020029  0
C  C201  1  0.55782947  0.30599719  0.03634211  1  -0.062298  0  -0.089073  -0.101006  0  3.989765  0
C  C202  1  0.63490992  0.38037117  0.04009048  1  -0.590327  0  -0.027287  -0.043736  0  3.963091  0
C  C203  1  0.72246088  0.09070149  0.18744237  1  -0.490372  0  -0.024735  -0.039001  0  3.941764  0
C  C204  1  0.75473796  0.10284931  0.12584362  1  -0.111137  0  -0.087126  -0.092487  0  3.980004  0
C  C205  1  0.78984306  0.05616099  0.10364783  1  -0.038867  0  -0.0949  -0.091374  0  4.030768  0
C  C206  1  0.79303314  0.99681694  0.14271986  1  -0.067496  0  -0.089906  -0.081689  0  4.023985  0
C  C207  1  0.76228081  0.98540383  0.20440742  1  -0.021002  0  -0.090492  -0.081229  0  4.008535  0
C  C208  1  0.72783550  0.03261420  0.22687126  1  0.005493  0  -0.08446  -0.08445  0  3.974216  0
C  C209  1  0.57153729  0.09663760  0.17204873  1  -0.521805  0  -0.027938  -0.047821  0  3.959607  0
C  C210  1  0.51326687  0.12210628  0.18602023  1  -0.041309  0  -0.089059  -0.099717  0  3.976973  0
C  C211  1  0.43775213  0.08819808  0.15341634  1  -0.084185  0  -0.092182  -0.081869  0  4.017223  0
C  C212  1  0.41855815  0.02720791  0.10713416  1  -0.059113  0  -0.091969  -0.087388  0  4.020633  0
C  C213  1  0.47558094  0.00080967  0.09346196  1  0.029116  0  -0.092562  -0.080652  0  4.016853  0
C  C214  1  0.55176676  0.03554608  0.12551083  1  -0.107439  0  -0.089455  -0.102382  0  3.9831  0
C  C215  1  0.60011773  0.24548854  0.43705599  1  -0.48246  0  -0.023192  -0.030369  0  3.955713  0
C  C216  1  0.56470552  0.29268690  0.45885609  1  0.031982  0  -0.077082  -0.103499  0  3.940092  0
C  C217  1  0.52068171  0.27208935  0.51590243  1  -0.557685  0  -0.022985  -0.034533  0  3.972583  0
C  C218  1  0.51162721  0.20391371  0.55126545  1  -0.063876  0  -0.077419  -0.130066  0  3.921128  0
C  C219  1  0.54904805  0.15830818  0.53115986  1  -0.042134  0  -0.007613  0.064628  0  3.998876  0
C  C220  1  0.59426219  0.18052449  0.47417626  1  -0.012255  0  -0.081114  -0.133692  0  3.935538  0
C  C221  1  0.54075725  0.08733690  0.56828581  1  -0.021124  0  0.013356  0.116388  0  3.976003  0
C  C222  1  0.46823568  0.03568966  0.60299988  1  -0.045113  0  -0.078105  -0.16173  0  3.927668  0
C  C223  1  0.46272502  0.96828336  0.63592222  1  0.461626  0  0.03978  0.080026  0  3.963872  0
C  C224  1  0.59449829  0.99933405  0.60372837  1  0.450437  0  0.036359  0.082669  0  3.93889  0
C  C225  1  0.60504397  0.06800145  0.56976552  1  0.010862  0  -0.080481  -0.168008  0  3.944942  0
C  C226  1  0.58364090  0.28516538  0.31020749  1  -0.579568  0  -0.029805  -0.057355  0  3.986697  0
C  C227  1  0.61533979  0.33644520  0.25659716  1  -0.052875  0  -0.089489  -0.10301  0  3.975028  0
C  C228  1  0.56151917  0.34395062  0.21442347  1  -0.108781  0  -0.089382  -0.069767  0  3.983571  0
C  C229  1  0.47536006  0.30023095  0.22473508  1  -0.006573  0  -0.092643  -0.083613  0  4.001092  0
C  C230  1  0.44307994  0.24869032  0.27764442  1  0.027162  0  -0.094699  -0.085706  0  4.025899  0
C  C231  1  0.49675460  0.24101089  0.31996986  1  0.002948  0  -0.094947  -0.117881  0  4.013726  0
C  C232  1  0.81626562  0.36242052  0.39394875  1  -0.054257  0  -0.090856  -0.100653  0  3.952505  0
C  C233  1  0.88883254  0.43581921  0.41048190  1  -0.070382  0  -0.08959  -0.071468  0  3.987127  0
C  C234  1  0.89165457  0.51236323  0.40566280  1  -0.061311  0  -0.091028  -0.0781  0  4.002498  0
C  C235  1  0.82137900  0.51548106  0.38529661  1  -0.080759  0  -0.093054  -0.086203  0  4.020261  0
C  C236  1  0.74809653  0.44222769  0.36967010  1  0.016344  0  -0.089147  -0.100718  0  3.989885  0
C  C237  1  0.74552959  0.36522158  0.37346489  1  -0.519722  0  -0.027461  -0.043126  0  3.960897  0
C  C238  1  0.36814750  0.27761543  0.52086857  1  -0.428249  0  -0.02463  -0.038649  0  3.941671  0
C  C239  1  0.34808332  0.24541918  0.45925108  1  -0.1125  0  -0.086838  -0.09174  0  3.978416  0
C  C240  1  0.26627102  0.21028845  0.43707273  1  -0.00597  0  -0.095049  -0.092416  0  4.029854  0
C  C241  1  0.20367251  0.20693953  0.47620181  1  -0.100367  0  -0.08965  -0.081309  0  4.022677  0
C  C242  1  0.22296662  0.23761571  0.53789600  1  -0.02026  0  -0.090591  -0.081467  0  4.007355  0
C  C243  1  0.30464485  0.27210244  0.56033581  1  -0.0908  0  -0.084677  -0.084928  0  3.97504  0
C  C244  1  0.52496910  0.42847559  0.50539042  1  -0.554555  0  -0.027234  -0.047889  0  3.959089  0
C  C245  1  0.60866058  0.48678448  0.51940196  1  -0.060121  0  -0.08923  -0.100828  0  3.976971  0
C  C246  1  0.65025134  0.56218138  0.48667323  1  -0.008897  0  -0.092444  -0.081077  0  4.015733  0
C  C247  1  0.60843621  0.58126260  0.44029678  1  -0.115075  0  -0.091879  -0.087468  0  4.020157  0
C  C248  1  0.52503211  0.52426338  0.42665338  1  -0.022842  0  -0.092388  -0.080831  0  4.017874  0
C  C249  1  0.48364895  0.44815465  0.45876529  1  -0.069986  0  -0.089913  -0.101688  0  3.983909  0
C  C250  1  0.64546909  0.40006219  0.77029215  1  -0.405693  0  -0.023396  -0.030623  0  3.956518  0
C  C251  1  0.72814541  0.43552368  0.79196562  1  -0.145831  0  -0.076729  -0.103314  0  3.94039  0
C  C252  1  0.75160821  0.47957338  0.84898137  1  -0.424151  0  -0.022665  -0.033514  0  3.970836  0
C  C253  1  0.69245913  0.48861363  0.88438553  1  -0.157207  0  -0.078176  -0.131645  0  3.921766  0
C  C254  1  0.60938133  0.45114033  0.86439078  1  0.038893  0  -0.007651  0.06601  0  3.998097  0
C  C255  1  0.58635573  0.40587052  0.80745832  1  -0.059941  0  -0.080801  -0.134329  0  3.936486  0
C  C256  1  0.54664718  0.45936901  0.90153738  1  -0.018495  0  0.013362  0.115723  0  3.977418  0
C  C257  1  0.56741777  0.53181413  0.93626109  1  0.011126  0  -0.078029  -0.161573  0  3.927417  0
C  C258  1  0.50548919  0.53720331  0.96928359  1  0.469416  0  0.040259  0.080045  0  3.962416  0
C  C259  1  0.40488341  0.40548223  0.93703012  1  0.441047  0  0.03701  0.082276  0  3.938335  0
C  C260  1  0.46306371  0.39508019  0.90300305  1  -0.058335  0  -0.080739  -0.167837  0  3.945379  0
C  C261  1  0.70146923  0.41644020  0.64343278  1  -0.559639  0  -0.029847  -0.057294  0  3.987729  0
C  C262  1  0.72114306  0.38472057  0.58988572  1  -0.139881  0  -0.089323  -0.102968  0  3.974706  0
C  C263  1  0.78242118  0.43851289  0.54767630  1  0.040042  0  -0.089156  -0.069877  0  3.982758  0
C  C264  1  0.82474651  0.52463902  0.55790494  1  -0.158515  0  -0.092207  -0.082985  0  4.00071  0
C  C265  1  0.80537700  0.55692883  0.61075142  1  -0.09853  0  -0.094582  -0.08574  0  4.024769  0
C  C266  1  0.74403509  0.50331365  0.65309034  1  -0.000433  0  -0.095093  -0.11803  0  4.013821  0
C  C267  1  0.54622563  0.18406407  0.72743223  1  -0.077787  0  -0.09119  -0.100132  0  3.952717  0
C  C268  1  0.54697011  0.11146226  0.74400617  1  -0.055318  0  -0.089656  -0.072529  0  3.989108  0
C  C269  1  0.62062472  0.10845046  0.73916646  1  0.000836  0  -0.091054  -0.076758  0  4.002906  0
C  C270  1  0.69404450  0.17858235  0.71871803  1  -0.059049  0  -0.092922  -0.086825  0  4.020537  0
C  C271  1  0.69411817  0.25186405  0.70298118  1  -0.046943  0  -0.089318  -0.101229  0  3.989522  0
C  C272  1  0.61974591  0.25461850  0.70681689  1  -0.513715  0  -0.027017  -0.043816  0  3.963459  0
C  C273  1  0.90970171  0.63191585  0.85394179  1  -0.423092  0  -0.024808  -0.039498  0  3.942559  0
C  C274  1  0.89750403  0.65193617  0.79232302  1  -0.162826  0  -0.086836  -0.091203  0  3.979471  0
C  C275  1  0.94395929  0.73373642  0.77014922  1  0.036632  0  -0.094983  -0.092597  0  4.031266  0
C  C276  1  0.00309821  0.79636426  0.80925881  1  -0.087038  0  -0.089806  -0.081176  0  4.023732  0
C  C277  1  0.01455167  0.77710043  0.87096167  1  -0.070859  0  -0.090352  -0.081151  0  4.007728  0
C  C278  1  0.96759044  0.69542845  0.89340129  1  -0.061002  0  -0.084772  -0.084603  0  3.97325  0
C  C279  1  0.90373362  0.47506834  0.83858995  1  -0.468117  0  -0.027555  -0.047323  0  3.958732  0
C  C280  1  0.87821994  0.39137253  0.85263154  1  -0.079462  0  -0.089617  -0.101973  0  3.977485  0
C  C281  1  0.91193605  0.34964162  0.81995602  1  -0.058662  0  -0.092033  -0.080123  0  4.015402  0
C  C282  1  0.97279519  0.39128485  0.77352492  1  0.020231  0  -0.092062  -0.08796  0  4.020708  0
C  C283  1  0.99932221  0.47468666  0.75982937  1  -0.110175  0  -0.092756  -0.0804  0  4.017024  0
C  C284  1  0.96471421  0.51622942  0.79190362  1  -0.049477  0  -0.089301  -0.102413  0  3.984103  0
C  C285  1  0.40002306  0.64532225  0.89645617  1  -0.48931  0  -0.024018  -0.031028  0  3.95486  0
C  C286  1  0.43537710  0.72792246  0.87464534  1  -0.087584  0  -0.076666  -0.102705  0  3.938206  0
C  C287  1  0.47933670  0.75130576  0.81756002  1  -0.472357  0  -0.023017  -0.034729  0  3.972465  0
C  C288  1  0.48839741  0.69215812  0.78224298  1  -0.031216  0  -0.077494  -0.130773  0  3.921399  0
C  C289  1  0.45102986  0.60915735  0.80234692  1  -0.065292  0  -0.007615  0.065931  0  3.998087  0
C  C290  1  0.40587603  0.58620551  0.85934570  1  0.003333  0  -0.080522  -0.133856  0  3.936055  0
C  C291  1  0.45928488  0.54646743  0.76519371  1  0.02262  0  0.013037  0.115564  0  3.97704  0
C  C292  1  0.53170707  0.56729335  0.73035775  1  -0.027607  0  -0.078299  -0.162156  0  3.929453  0
C  C293  1  0.53717255  0.50540590  0.69740396  1  0.45532  0  0.040207  0.080547  0  3.96469  0
C  C294  1  0.40547932  0.40478349  0.72975410  1  0.506304  0  0.036568  0.082164  0  3.937287  0
C  C295  1  0.39501266  0.46289645  0.76378925  1  -0.095511  0  -0.080558  -0.167847  0  3.944149  0
C  C296  1  0.41630571  0.70131062  0.02331668  1  -0.598125  0  -0.029833  -0.057249  0  3.987041  0
C  C297  1  0.38453815  0.72094708  0.07687319  1  -0.058341  0  -0.089443  -0.103464  0  3.974786  0
C  C298  1  0.43829782  0.78227473  0.11902490  1  -6.2e-05  0  -0.089439  -0.069716  0  3.982675  0
C  C299  1  0.52447279  0.82462586  0.10876303  1  -0.069122  0  -0.092434  -0.083636  0  3.999831  0
C  C300  1  0.55681500  0.80524922  0.05593682  1  -0.062242  0  -0.094288  -0.0849  0  4.023764  0
C  C301  1  0.50320518  0.74389289  0.01363621  1  -0.055086  0  -0.095626  -0.118406  0  4.01384  0
C  C302  1  0.18391313  0.54614264  0.93934929  1  -0.000866  0  -0.09109  -0.101088  0  3.953035  0
C  C303  1  0.11130930  0.54692703  0.92272330  1  -0.075927  0  -0.089589  -0.071964  0  3.988031  0
C  C304  1  0.10837190  0.62059824  0.92744355  1  -0.076677  0  -0.091034  -0.077851  0  4.002476  0
C  C305  1  0.17856276  0.69397256  0.94783442  1  0.023929  0  -0.092895  -0.08566  0  4.02018  0
C  C306  1  0.25183588  0.69400523  0.96365770  1  -0.051757  0  -0.089099  -0.101039  0  3.989901  0
C  C307  1  0.25454195  0.61963146  0.95991032  1  -0.584677  0  -0.027281  -0.043678  0  3.962991  0
C  C308  1  0.63175891  0.90930232  0.81255779  1  -0.453486  0  -0.024776  -0.039159  0  3.941703  0
C  C309  1  0.65188828  0.89715447  0.87415752  1  -0.123133  0  -0.087172  -0.092469  0  3.979973  0
C  C310  1  0.73367920  0.94384332  0.89635434  1  -0.007283  0  -0.094842  -0.091239  0  4.030935  0
C  C311  1  0.79621522  0.00318637  0.85728234  1  -0.04799  0  -0.089895  -0.081831  0  4.024055  0
C  C312  1  0.77687771  0.01460038  0.79559475  1  -0.030081  0  -0.090484  -0.081075  0  4.008374  0
C  C313  1  0.69522151  0.96738981  0.77313037  1  -0.070369  0  -0.084373  -0.08439  0  3.974067  0
C  C314  1  0.47489746  0.90336133  0.82795265  1  -0.474923  0  -0.027959  -0.047876  0  3.959606  0
C  C315  1  0.39115930  0.87789423  0.81397870  1  -0.072521  0  -0.089059  -0.099696  0  3.977045  0
C  C316  1  0.34955186  0.91179989  0.84658393  1  -0.015139  0  -0.092165  -0.081878  0  4.01725  0
C  C317  1  0.39134699  0.97278831  0.89286659  1  -0.091024  0  -0.091936  -0.087314  0  4.020481  0
C  C318  1  0.47476649  0.99918643  0.90653936  1  -0.015342  0  -0.092576  -0.080665  0  4.016795  0
C  C319  1  0.51621871  0.96445147  0.87449104  1  -0.090309  0  -0.089447  -0.102403  0  3.983223  0
C  C320  1  0.35463129  0.75451057  0.56294061  1  -0.461523  0  -0.02326  -0.030523  0  3.955835  0
C  C321  1  0.27201974  0.70731152  0.54114043  1  -0.012485  0  -0.077089  -0.103458  0  3.939842  0
C  C322  1  0.24859401  0.72791297  0.48409593  1  -0.48851  0  -0.022968  -0.034495  0  3.972522  0
C  C323  1  0.30771664  0.79608347  0.44873200  1  -0.145039  0  -0.077496  -0.130215  0  3.921286  0
C  C324  1  0.39074270  0.84168784  0.46883720  1  0.017161  0  -0.007599  0.064754  0  3.998857  0
C  C325  1  0.41374053  0.81947083  0.52581989  1  -0.046109  0  -0.081077  -0.13366  0  3.935655  0
C  C326  1  0.45342373  0.91265429  0.43170845  1  -0.042416  0  0.013297  0.116204  0  3.976086  0
C  C327  1  0.43254881  0.96430169  0.39699573  1  -0.051742  0  -0.078137  -0.161637  0  3.92791  0
C  C328  1  0.49444296  0.03171159  0.36407532  1  0.479414  0  0.03976  0.079726  0  3.963857  0
C  C329  1  0.59516673  0.00066250  0.39627026  1  0.478003  0  0.036206  0.082365  0  3.938904  0
C  C330  1  0.53704650  0.93199391  0.43023262  1  0.051846  0  -0.080341  -0.16777  0  3.944603  0
C  C331  1  0.29847865  0.71483110  0.68979047  1  -0.57025  0  -0.02984  -0.057579  0  3.986971  0
C  C332  1  0.27890673  0.66355453  0.74340270  1  -0.014472  0  -0.089469  -0.102762  0  3.974761  0
C  C333  1  0.21757884  0.65604540  0.78557584  1  -0.088313  0  -0.089398  -0.069735  0  3.983347  0
C  C334  1  0.17514026  0.69976640  0.77526698  1  -0.015336  0  -0.09278  -0.084058  0  4.001163  0
C  C335  1  0.19439369  0.75130376  0.72235575  1  -0.013031  0  -0.094653  -0.085536  0  4.025696  0
C  C336  1  0.25574906  0.75898642  0.68003085  1  -0.071137  0  -0.094961  -0.117795  0  4.013718  0
C  C337  1  0.45384326  0.63757425  0.60604521  1  -0.076826  0  -0.090764  -0.100423  0  3.952111  0
C  C338  1  0.45301186  0.56417456  0.58951589  1  -0.056167  0  -0.089654  -0.071607  0  3.987042  0
C  C339  1  0.37928857  0.48763104  0.59433589  1  -0.087475  0  -0.091056  -0.078124  0  4.00243  0
C  C340  1  0.30589667  0.48451482  0.61470293  1  -0.078905  0  -0.09305  -0.086099  0  4.02006  0
C  C341  1  0.30586508  0.55776776  0.63032703  1  0.006359  0  -0.089152  -0.100935  0  3.989817  0
C  C342  1  0.38030606  0.63477279  0.62653277  1  -0.515145  0  -0.027511  -0.043228  0  3.960734  0
C  C343  1  0.09053427  0.72238894  0.47913053  1  -0.425062  0  -0.024563  -0.038329  0  3.941337  0
C  C344  1  0.10266461  0.75458253  0.54074849  1  -0.059773  0  -0.0869  -0.091844  0  3.978457  0
C  C345  1  0.05598389  0.78971374  0.56292770  1  -0.06392  0  -0.095058  -0.092516  0  4.029881  0
C  C346  1  0.99673751  0.79306560  0.52379636  1  -0.075807  0  -0.089642  -0.081277  0  4.022683  0
C  C347  1  0.98535449  0.76238995  0.46210217  1  -0.009107  0  -0.090635  -0.081548  0  4.007392  0
C  C348  1  0.03254551  0.72790188  0.43966322  1  -0.088193  0  -0.084664  -0.08506  0  3.97507  0
C  C349  1  0.09649292  0.57152407  0.49461021  1  -0.503226  0  -0.02717  -0.04774  0  3.958867  0
C  C350  1  0.12187673  0.51321566  0.48059969  1  -0.031602  0  -0.089262  -0.10089  0  3.977062  0
C  C351  1  0.08807013  0.43781970  0.51332795  1  -0.066206  0  -0.092385  -0.08098  0  4.015874  0
C  C352  1  0.02717568  0.41873967  0.55970480  1  -0.087842  0  -0.091936  -0.087624  0  4.020241  0
C  C353  1  0.00077014  0.47573957  0.57334861  1  -0.033731  0  -0.092347  -0.080664  0  4.01791  0
C  C354  1  0.03549411  0.55184598  0.54123717  1  -0.05111  0  -0.089946  -0.101803  0  3.983965  0
C  C355  1  0.24540862  0.59993774  0.22970866  1  -0.418013  0  -0.0234  -0.030632  0  3.956545  0
C  C356  1  0.29262289  0.56447541  0.20803479  1  -0.157515  0  -0.076746  -0.103281  0  3.940409  0
C  C357  1  0.27203641  0.52042812  0.15101952  1  -0.435898  0  -0.022588  -0.03357  0  3.97106  0
C  C358  1  0.20384831  0.51138852  0.11561480  1  -0.047031  0  -0.078238  -0.131689  0  3.921896  0
C  C359  1  0.15824441  0.54886280  0.13560805  1  -0.049349  0  -0.007651  0.066002  0  3.997923  0
C  C360  1  0.18048832  0.59413136  0.19254288  1  -0.01729  0  -0.080837  -0.134397  0  3.936442  0
C  C361  1  0.08728133  0.54063502  0.09846231  1  0.002808  0  0.013365  0.115738  0  3.977435  0
C  C362  1  0.03560805  0.46818904  0.06374094  1  -0.033462  0  -0.078012  -0.161636  0  3.927407  0
C  C363  1  0.96828899  0.46279678  0.03071760  1  0.469453  0  0.04025  0.080099  0  3.9623  0
C  C364  1  0.99940264  0.59451831  0.06296771  1  0.452824  0  0.036996  0.082239  0  3.938338  0
C  C365  1  0.06798559  0.60492273  0.09699563  1  0.002791  0  -0.080678  -0.167682  0  3.945432  0
C  C366  1  0.28502343  0.58355909  0.35656951  1  -0.468973  0  -0.029911  -0.057482  0  3.988122  0
C  C367  1  0.33642182  0.61527813  0.41011520  1  -0.1096  0  -0.089291  -0.102937  0  3.974705  0
C  C368  1  0.34390569  0.56148446  0.45232560  1  -0.03586  0  -0.089161  -0.06987  0  3.982797  0
C  C369  1  0.30010679  0.47536010  0.44209460  1  -0.090258  0  -0.092199  -0.082979  0  4.000691  0
C  C370  1  0.24844492  0.44307115  0.38924949  1  -0.022623  0  -0.094652  -0.085829  0  4.0248  0
C  C371  1  0.24071862  0.49668677  0.34691147  1  -0.045932  0  -0.095105  -0.117982  0  4.014012  0
C  C372  1  0.36215773  0.81593398  0.27256906  1  -0.055623  0  -0.091125  -0.099971  0  3.952695  0
C  C373  1  0.43550528  0.88853686  0.25599422  1  -0.05419  0  -0.089695  -0.072682  0  3.98921  0
C  C374  1  0.51217128  0.89154894  0.26083403  1  -0.006077  0  -0.091072  -0.076764  0  4.002851  0
C  C375  1  0.51545875  0.82141668  0.28128441  1  -0.032896  0  -0.092921  -0.08686  0  4.02055  0
C  C376  1  0.44225294  0.74813540  0.29702120  1  -0.039492  0  -0.089299  -0.101262  0  3.989423  0
C  C377  1  0.36512628  0.74538239  0.29318444  1  -0.546359  0  -0.027041  -0.04383  0  3.963413  0
C  C378  1  0.27778559  0.36808261  0.14606015  1  -0.461665  0  -0.024763  -0.03944  0  3.942496  0
C  C379  1  0.24556682  0.34806182  0.20767890  1  -0.085361  0  -0.0869  -0.091299  0  3.979592  0
C  C380  1  0.21022190  0.26626276  0.22985317  1  0.001488  0  -0.095043  -0.092672  0  4.031161  0
C  C381  1  0.20673357  0.20363617  0.19074250  1  -0.116875  0  -0.089762  -0.081136  0  4.023652  0
C  C382  1  0.23744760  0.22289793  0.12903967  1  -0.063852  0  -0.090414  -0.081066  0  4.007774  0
C  C383  1  0.27215960  0.30456985  0.10660021  1  -0.031486  0  -0.084789  -0.084713  0  3.973424  0
C  C384  1  0.42866551  0.52493103  0.16141162  1  -0.506232  0  -0.027518  -0.047292  0  3.95875  0
C  C385  1  0.48684609  0.60862623  0.14737052  1  -0.056661  0  -0.089633  -0.101975  0  3.97752  0
C  C386  1  0.56229325  0.65035506  0.18004470  1  -0.007419  0  -0.092057  -0.080101  0  4.015335  0
C  C387  1  0.58151001  0.60871357  0.22647774  1  -0.104051  0  -0.092037  -0.08794  0  4.020681  0
C  C388  1  0.52463457  0.52531137  0.24017185  1  -0.01585  0  -0.092747  -0.080393  0  4.017026  0
C  C389  1  0.44848508  0.48376982  0.20809658  1  -0.101136  0  -0.089303  -0.102424  0  3.984024  0
Br  Br390  1  0.83643145  0.63144983  0.02847492  1  -0.661164  0  -0.393803  -0.543748  0  1.171078  0
Br  Br391  1  0.79512480  0.16367810  0.36198614  1  -0.661652  0  -0.394221  -0.544216  0  1.169867  0
Br  Br392  1  0.36856473  0.20504562  0.69560863  1  -0.662004  0  -0.393747  -0.543687  0  1.170554  0
Br  Br393  1  0.20497941  0.36854441  0.97152173  1  -0.661805  0  -0.393821  -0.543751  0  1.171051  0
Br  Br394  1  0.63143383  0.83630430  0.63802352  1  -0.661819  0  -0.394218  -0.54418  0  1.169916  0
Br  Br395  1  0.16352178  0.79495932  0.30439242  1  -0.661537  0  -0.393744  -0.54367  0  1.170573  0
N  N396  1  0.05083142  0.57507462  0.30278787  1  -1.238946  0  -0.361161  -0.180774  0  3.659416  0
N  N397  1  0.52414416  0.94916716  0.63617147  1  -1.235518  0  -0.360326  -0.181328  0  3.659514  0
N  N398  1  0.42501299  0.47573751  0.96956492  1  -1.240967  0  -0.361332  -0.18103  0  3.658407  0
N  N399  1  0.47576770  0.42493601  0.69720891  1  -1.238622  0  -0.36109  -0.180814  0  3.659083  0
N  N400  1  0.57498105  0.05083104  0.36382900  1  -1.227506  0  -0.360282  -0.181147  0  3.659107  0
N  N401  1  0.94927451  0.52426100  0.03043525  1  -1.232481  0  -0.361329  -0.180998  0  3.658295  0
